<?xml version="1.0" encoding="UTF-8"?>

<!-- generated on 2024-07-16 18:21:40 by Eclipse SUMO polyconvert Version 1.15.0
<configuration xmlns:xsi="http://www.w3.org/2001/XMLSchema-instance" xsi:noNamespaceSchemaLocation="http://sumo.dlr.de/xsd/polyconvertConfiguration.xsd">

    <input>
        <net-file value="lucknow.net.xml"/>
        <osm-files value="lucknow.osm"/>
        <type-file value="osmPolyconvert.typ.xml"/>
    </input>

    <output>
        <output-file value="lucknow.poly.xml"/>
    </output>

</configuration>
-->

<additional xmlns:xsi="http://www.w3.org/2001/XMLSchema-instance" xsi:noNamespaceSchemaLocation="http://sumo.dlr.de/xsd/additional_file.xsd">
    <location netOffset="-489546.17,-2967326.68" convBoundary="-3717.01,0.00,10075.73,7050.85" origBoundary="80.857379,26.827463,80.996193,26.891135" projParameter="+proj=utm +zone=44 +ellps=WGS84 +datum=WGS84 +units=m +no_defs"/>

    <poly id="101225606" type="landuse" color="194,194,130" fill="1" layer="-3.00" shape="1239.707482,661.181207 1256.592051,651.832090 1321.428148,765.653974 1413.940341,887.397593 1451.053923,947.102163 1509.777234,1062.324948 1531.361102,1052.983937 1558.762972,1107.811335 1562.364806,1115.030137 1548.242127,1123.468694 1541.260246,1127.638083 1614.078380,1268.059667 1690.730639,1423.685938 1770.564789,1585.778707 1721.971635,1615.605861 1636.013533,1463.064913 1555.180098,1352.719301 1482.982634,1219.086992 1459.682162,1203.298595 1442.302189,1172.044360 1421.196511,1182.791795 1176.418349,720.493534 1197.032250,688.746581 1239.707482,661.181207"/>
    <poly id="1071503609" type="building" color="255,230,230" fill="1" layer="-1.00" shape="2393.708425,1285.313655 2383.108387,1271.763805 2405.303542,1254.582316 2415.903571,1268.132185 2393.708425,1285.313655"/>
    <poly id="1071503610" type="building" color="255,230,230" fill="1" layer="-1.00" shape="2375.084501,1262.653660 2361.480648,1244.099547 2379.326005,1230.044147 2396.663439,1245.140281 2375.084501,1262.653660"/>
    <poly id="1071503611" type="building" color="255,230,230" fill="1" layer="-1.00" shape="2105.468492,1333.636109 2062.720681,1281.398354 2085.709286,1262.787010 2128.466992,1315.013761 2105.468492,1333.636109"/>
    <poly id="1071503612" type="building" color="255,230,230" fill="1" layer="-1.00" shape="1919.458268,1647.268917 1910.979951,1627.471335 1920.624199,1623.078833 1929.281392,1642.953830 1919.458268,1647.268917"/>
    <poly id="1071503613" type="building" color="255,230,230" fill="1" layer="-1.00" shape="1922.145649,1625.060350 1931.819783,1620.778593 1940.824869,1640.908104 1931.150747,1645.189854 1922.145649,1625.060350"/>
    <poly id="1071503614" type="building" color="255,230,230" fill="1" layer="-1.00" shape="1931.150747,1645.189854 1931.727872,1646.485319 1939.489155,1663.846749 1943.531624,1662.060835 1945.511741,1666.489772 1951.143382,1663.993943 1949.581184,1660.506156 1941.640807,1642.746117 1940.824869,1640.908104 1931.150747,1645.189854"/>
    <poly id="1071503615" type="building" color="255,230,230" fill="1" layer="-1.00" shape="1941.640807,1642.746117 1951.136151,1638.542024 1959.076525,1656.313146 1949.581184,1660.506156 1941.640807,1642.746117"/>
    <poly id="1071503616" type="building" color="255,230,230" fill="1" layer="-1.00" shape="1951.136151,1638.542024 1959.697864,1634.759444 1961.118191,1634.127174 1969.058554,1651.898301 1959.076525,1656.313146 1951.136151,1638.542024"/>
    <poly id="1071503617" type="building" color="255,230,230" fill="1" layer="-1.00" shape="1969.058554,1651.898301 1979.537207,1647.261617 1971.596856,1629.490483 1961.118191,1634.127174 1969.058554,1651.898301"/>
    <poly id="1071503618" type="building" color="255,230,230" fill="1" layer="-1.00" shape="1959.697864,1634.759444 1952.802280,1619.346739 1957.639354,1617.205872 1958.753777,1619.674998 1972.818050,1613.452070 1967.614010,1601.792877 1979.503109,1596.535005 1990.498202,1621.126714 1981.330602,1625.186572 1971.596856,1629.490483 1961.118191,1634.127174 1959.697864,1634.759444"/>
    <poly id="1071503619" type="building" color="255,230,230" fill="1" layer="-1.00" shape="1990.498202,1621.126714 1995.931060,1633.284169 1994.331939,1633.983010 1997.675219,1641.445779 1990.106743,1644.795714 1981.330602,1625.186572 1990.498202,1621.126714"/>
    <poly id="1071503620" type="building" color="255,230,230" fill="1" layer="-1.00" shape="1931.819783,1620.778593 1941.305205,1616.574500 1951.136151,1638.542024 1941.640807,1642.746117 1940.824869,1640.908104 1931.819783,1620.778593"/>
    <poly id="1071503621" type="building" color="255,230,230" fill="1" layer="-1.00" shape="1941.305205,1616.574500 1949.876865,1612.791907 1952.802280,1619.346739 1959.697864,1634.759444 1951.136151,1638.542024 1941.305205,1616.574500"/>
    <poly id="1071503622" type="building" color="255,230,230" fill="1" layer="-1.00" shape="1910.979951,1627.471335 1902.040645,1631.165599 1903.622933,1634.952410 1910.768123,1652.092726 1919.707416,1648.398469 1919.458268,1647.268917 1910.979951,1627.471335"/>
    <poly id="1071503623" type="building" color="255,230,230" fill="1" layer="-1.00" shape="1925.455586,1656.601661 1930.480522,1667.840083 1939.489155,1663.846749 1931.727872,1646.485319 1929.582485,1647.439279 1932.318840,1653.562283 1925.455586,1656.601661"/>
    <poly id="1071503624" type="building" color="255,230,230" fill="1" layer="-1.00" shape="1922.045118,1652.683176 1917.237915,1654.890492 1916.810066,1653.960424 1913.641682,1655.413485 1916.527132,1661.624990 1921.064232,1671.368521 1929.029870,1667.697080 1922.045118,1652.683176"/>
    <poly id="1071503625" type="building" color="255,230,230" fill="1" layer="-1.00" shape="1913.463919,1656.997428 1894.800629,1664.630156 1896.442647,1668.594137 1899.213824,1667.451461 1900.199035,1669.832065 1916.259981,1663.253296 1913.463919,1656.997428"/>
    <poly id="1071503626" type="building" color="255,230,230" fill="1" layer="-1.00" shape="1919.852785,1672.344001 1903.950859,1678.989111 1900.199035,1669.832065 1916.259981,1663.253296 1919.852785,1672.344001"/>
    <poly id="1071503627" type="building" color="255,230,230" fill="1" layer="-1.00" shape="1900.199035,1669.832065 1895.212999,1672.028434 1899.014404,1681.041462 1903.950859,1678.989111 1900.199035,1669.832065"/>
    <poly id="1071503628" type="building" color="255,230,230" fill="1" layer="-1.00" shape="1911.016918,1652.701720 1899.296515,1657.538666 1891.892581,1639.789370 1903.622933,1634.952410 1910.768123,1652.092726 1911.016918,1652.701720"/>
    <poly id="1086891602" type="building" color="255,230,230" fill="1" layer="-1.00" shape="2658.488406,989.338030 2681.469936,989.202011 2681.403528,978.181757 2658.431908,978.306694 2658.488406,989.338030"/>
    <poly id="1086891605" type="building" color="255,230,230" fill="1" layer="-1.00" shape="2405.336563,1088.391765 2385.055263,1100.178169 2405.744130,1135.407749 2426.025392,1123.621377 2405.336563,1088.391765"/>
    <poly id="1154454851" type="building" color="255,230,230" fill="1" layer="-1.00" shape="3484.816858,906.517750 3482.079597,897.680878 3493.364711,893.897840 3496.548518,901.715507 3484.816858,906.517750"/>
    <poly id="1154454852" type="building" color="255,230,230" fill="1" layer="-1.00" shape="3482.079597,897.680878 3479.689949,888.589074 3490.130835,885.382435 3493.364711,893.897840 3482.079597,897.680878"/>
    <poly id="1154454853" type="building" color="255,230,230" fill="1" layer="-1.00" shape="3479.689949,888.589074 3475.718408,875.743494 3486.159309,872.547928 3490.130835,885.382435 3479.689949,888.589074"/>
    <poly id="1156998315" type="college" color="237,199,199" fill="1" layer="-2.00" shape="2844.754299,2320.333007 2832.488310,2293.238201 2877.172233,2271.901630 2894.637155,2304.165708 2896.775509,2308.118447 2851.795475,2332.500944 2844.754299,2320.333007"/>
    <poly id="1156998626" type="tourism" color="207,245,201" fill="1" layer="-2.00" shape="2872.468214,2263.852431 2931.141754,2227.821281 2878.895841,2147.775334 2822.084235,2190.960491 2872.468214,2263.852431"/>
    <poly id="1156998627" type="tourism" color="207,245,201" fill="1" layer="-2.00" shape="2774.812546,2270.136089 2829.311162,2247.264928 2795.873180,2186.368902 2749.259208,2219.845894 2774.812546,2270.136089"/>
    <poly id="1156999685" type="tourism" color="207,245,201" fill="1" layer="-2.00" shape="3059.481489,2161.933588 3021.876217,2108.681642 3063.438330,2081.887266 3098.640181,2136.735636 3059.481489,2161.933588"/>
    <poly id="1157000587" type="tourism" color="207,245,201" fill="1" layer="-2.00" shape="3568.395278,1866.278922 3557.059462,1848.475419 3584.292805,1832.168219 3597.009999,1850.735216 3568.395278,1866.278922"/>
    <poly id="1159656061" type="building" color="255,230,230" fill="1" layer="-1.00" shape="3616.000146,2114.603101 3612.619875,2110.207888 3615.837474,2107.758415 3616.722022,2108.378174 3621.131324,2105.019850 3623.885241,2108.584728 3616.000146,2114.603101"/>
    <poly id="1159656081" type="building" color="255,230,230" fill="1" layer="-1.00" shape="3490.541002,2365.458615 3497.039257,2349.129458 3511.862385,2349.940886 3499.783430,2371.079963 3490.541002,2365.458615"/>
    <poly id="1173419755" type="leisure" color="207,245,201" fill="1" layer="-2.00" shape="4843.642528,2738.920502 4822.567028,2751.068863 4826.245925,2758.122436 4847.510133,2745.885392 4843.642528,2738.920502"/>
    <poly id="1173419756" type="leisure" color="207,245,201" fill="1" layer="-2.00" shape="4804.227983,2773.128777 4779.785790,2787.460632 4778.107396,2788.624335 4784.340335,2797.637145 4809.238733,2781.599438 4804.227983,2773.128777"/>
    <poly id="1173419756#1" type="sport" color="79,230,125" fill="1" layer="-2.00" shape="4804.227983,2773.128777 4779.785790,2787.460632 4778.107396,2788.624335 4784.340335,2797.637145 4809.238733,2781.599438 4804.227983,2773.128777"/>
    <poly id="1173419757" type="leisure" color="207,245,201" fill="1" layer="-2.00" shape="4786.734927,2798.522123 4797.133439,2792.237532 4803.088795,2802.579559 4792.898841,2808.708991 4786.734927,2798.522123"/>
    <poly id="1173419757#1" type="sport" color="79,230,125" fill="1" layer="-2.00" shape="4786.734927,2798.522123 4797.133439,2792.237532 4803.088795,2802.579559 4792.898841,2808.708991 4786.734927,2798.522123"/>
    <poly id="1173419760" type="leisure" color="207,245,201" fill="1" layer="-2.00" shape="4722.420168,2799.946748 4726.829295,2796.090402 4739.194580,2811.236338 4734.954258,2814.915393 4722.420168,2799.946748"/>
    <poly id="1173419761" type="building" color="255,230,230" fill="1" layer="-1.00" shape="4797.349796,2743.072430 4765.439339,2762.923362 4780.787860,2784.558349 4811.953452,2765.261574 4797.349796,2743.072430"/>
    <poly id="1173419761#1" type="leisure" color="207,245,201" fill="1" layer="-2.00" shape="4797.349796,2743.072430 4765.439339,2762.923362 4780.787860,2784.558349 4811.953452,2765.261574 4797.349796,2743.072430"/>
    <poly id="1173419761#2" type="sport" color="79,230,125" fill="1" layer="-2.00" shape="4797.349796,2743.072430 4765.439339,2762.923362 4780.787860,2784.558349 4811.953452,2765.261574 4797.349796,2743.072430"/>
    <poly id="1176648916" type="building" color="255,230,230" fill="1" layer="-1.00" shape="4969.784738,2634.753468 4988.568028,2627.989136 4980.939125,2607.026163 4962.155808,2613.790506 4969.784738,2634.753468"/>
    <poly id="1176648917" type="building" color="255,230,230" fill="1" layer="-1.00" shape="4718.310832,2545.728246 4694.823530,2563.371457 4710.827839,2584.441194 4734.315119,2566.786937 4718.310832,2545.728246"/>
    <poly id="1176648918" type="building" color="255,230,230" fill="1" layer="-1.00" shape="4744.037254,2273.243543 4758.839737,2294.313878 4777.372298,2281.435570 4762.569832,2260.365213 4744.037254,2273.243543"/>
    <poly id="1176648919" type="building" color="255,230,230" fill="1" layer="-1.00" shape="4670.368418,2290.377993 4654.637074,2302.125450 4663.037099,2313.252654 4678.768437,2301.505207 4670.368418,2290.377993"/>
    <poly id="1176648920" type="building" color="255,230,230" fill="1" layer="-1.00" shape="4695.304552,2333.307016 4677.550126,2309.513487 4654.906463,2326.214947 4672.660909,2350.008444 4695.304552,2333.307016"/>
    <poly id="121392248" type="building" color="255,230,230" fill="1" layer="-1.00" shape="4259.603363,3179.419801 4237.100819,3175.831281 4218.510529,3168.652337 4204.668582,3161.172022 4188.390730,3149.617074 4174.862194,3133.220697 4167.254379,3116.810303 4164.415109,3100.718728 4164.168374,3084.060999 4167.596132,3065.075539 4176.578189,3048.213847 4186.951932,3033.101430 4198.778893,3023.614755 4212.335237,3015.755362 4228.137428,3009.290413 4245.718924,3004.973291 4266.719372,3003.822165 4289.350911,3006.491392 4306.539860,3012.009767 4320.879069,3020.409235 4333.310843,3028.721040 4346.678747,3041.839256 4357.603761,3056.930143 4361.873993,3074.416606 4362.410246,3094.563043 4358.693645,3112.585004 4353.545604,3128.680487 4341.890064,3143.438967 4330.709376,3154.054917 4315.634152,3163.897474 4298.213953,3172.622549 4277.722411,3177.827081 4259.603363,3179.419801"/>
    <poly id="121392248#1" type="leisure" color="207,245,201" fill="1" layer="-2.00" shape="4259.603363,3179.419801 4237.100819,3175.831281 4218.510529,3168.652337 4204.668582,3161.172022 4188.390730,3149.617074 4174.862194,3133.220697 4167.254379,3116.810303 4164.415109,3100.718728 4164.168374,3084.060999 4167.596132,3065.075539 4176.578189,3048.213847 4186.951932,3033.101430 4198.778893,3023.614755 4212.335237,3015.755362 4228.137428,3009.290413 4245.718924,3004.973291 4266.719372,3003.822165 4289.350911,3006.491392 4306.539860,3012.009767 4320.879069,3020.409235 4333.310843,3028.721040 4346.678747,3041.839256 4357.603761,3056.930143 4361.873993,3074.416606 4362.410246,3094.563043 4358.693645,3112.585004 4353.545604,3128.680487 4341.890064,3143.438967 4330.709376,3154.054917 4315.634152,3163.897474 4298.213953,3172.622549 4277.722411,3177.827081 4259.603363,3179.419801"/>
    <poly id="121392248#2" type="sport" color="79,230,125" fill="1" layer="-2.00" shape="4259.603363,3179.419801 4237.100819,3175.831281 4218.510529,3168.652337 4204.668582,3161.172022 4188.390730,3149.617074 4174.862194,3133.220697 4167.254379,3116.810303 4164.415109,3100.718728 4164.168374,3084.060999 4167.596132,3065.075539 4176.578189,3048.213847 4186.951932,3033.101430 4198.778893,3023.614755 4212.335237,3015.755362 4228.137428,3009.290413 4245.718924,3004.973291 4266.719372,3003.822165 4289.350911,3006.491392 4306.539860,3012.009767 4320.879069,3020.409235 4333.310843,3028.721040 4346.678747,3041.839256 4357.603761,3056.930143 4361.873993,3074.416606 4362.410246,3094.563043 4358.693645,3112.585004 4353.545604,3128.680487 4341.890064,3143.438967 4330.709376,3154.054917 4315.634152,3163.897474 4298.213953,3172.622549 4277.722411,3177.827081 4259.603363,3179.419801"/>
    <poly id="121392249" type="building" color="255,230,230" fill="1" layer="-1.00" shape="4188.572140,3174.814203 4173.157703,3161.542112 4157.671819,3144.515414 4147.556629,3120.209310 4144.636575,3101.548218 4144.794763,3080.194190 4148.986225,3058.804916 4160.796091,3035.085941 4173.991167,3020.005331 4188.816527,3007.006157 4207.467421,2995.644306 4229.369043,2988.711157 4253.418458,2985.775315 4283.043039,2986.979099 4308.776190,2993.944213 4329.324924,3003.570066 4348.415090,3016.907017 4361.843555,3032.007770 4371.636192,3047.376109 4377.505046,3063.266905 4380.713314,3082.880421 4380.723025,3103.027113 4377.533167,3121.580448 4371.380950,3136.003977 4359.141119,3154.561690 4345.289425,3167.814935 4328.874065,3179.640677 4312.257963,3187.180242 4288.042316,3194.767848 4263.000012,3197.969930 4233.891755,3195.259644 4209.161610,3186.865420 4188.572140,3174.814203"/>
    <poly id="1223524240" type="building" color="255,230,230" fill="1" layer="-1.00" shape="4330.925663,858.630387 4325.438552,853.549321 4342.291148,835.576410 4347.768325,840.657488 4330.925663,858.630387"/>
    <poly id="1223524241" type="building" color="255,230,230" fill="1" layer="-1.00" shape="4399.863681,842.991489 4385.839694,833.949409 4389.384212,828.498476 4403.418139,837.540555 4399.863681,842.991489"/>
    <poly id="1223524242" type="building" color="255,230,230" fill="1" layer="-1.00" shape="4418.316153,866.673497 4408.514275,856.156308 4415.516019,849.684763 4410.953072,844.791504 4415.372620,840.713542 4429.737448,856.135076 4418.316153,866.673497"/>
    <poly id="1223524243" type="building" color="255,230,230" fill="1" layer="-1.00" shape="4490.571540,911.318367 4481.646152,905.098065 4495.696025,885.121990 4503.512759,858.049368 4513.738222,860.968523 4505.197326,890.544582 4490.571540,911.318367"/>
    <poly id="1258265195" type="building" color="255,230,230" fill="1" layer="-1.00" shape="2383.023991,1031.244466 2380.778007,1045.998703 2370.124014,1026.113616 2383.023991,1031.244466"/>
    <poly id="1258265775" type="building" color="255,230,230" fill="1" layer="-1.00" shape="2304.316194,1006.264061 2311.092430,1006.259684 2305.272927,995.364979 2304.316194,1006.264061"/>
    <poly id="1258314196" type="building" color="255,230,230" fill="1" layer="-1.00" shape="2175.810479,1542.598911 2190.787615,1534.260173 2182.710642,1519.911385 2171.626752,1526.076741 2177.893381,1537.214762 2174.000125,1539.388152 2175.810479,1542.598911"/>
    <poly id="1258315990" type="building" color="255,230,230" fill="1" layer="-1.00" shape="2136.848625,1564.986358 2143.085809,1561.582010 2139.047196,1554.241495 2136.921781,1555.394768 2133.440210,1549.061774 2129.308567,1551.312865 2136.848625,1564.986358"/>
    <poly id="1258322597" type="residential" color="235,235,227" fill="1" layer="-3.00" shape="2081.344970,1528.229676 2138.888059,1493.724070 2104.200328,1429.076089 2045.074040,1488.492115 2081.344970,1528.229676"/>
    <poly id="1258337666" type="building" color="255,230,230" fill="1" layer="-1.00" shape="2129.403246,1784.976521 2133.595418,1784.231683 2132.368905,1777.443097 2131.087407,1777.665456 2129.282535,1767.676379 2123.689658,1768.676885 2125.624147,1779.352569 2128.296399,1778.863473 2129.403246,1784.976521"/>
    <poly id="1258338716" type="tourism" color="207,245,201" fill="1" layer="-2.00" shape="1987.731370,1791.505843 2022.425222,1776.763003 2012.235666,1753.045702 1977.541761,1767.788569 1987.731370,1791.505843"/>
    <poly id="154080053" type="tourism" color="207,245,201" fill="1" layer="-2.00" shape="3914.858140,3272.109343 3814.618025,3167.208413 4013.838040,2994.301941 4054.194561,3040.400590 4029.728991,3123.104214 3914.858140,3272.109343"/>
    <poly id="154080093" type="tourism" color="207,245,201" fill="1" layer="-2.00" shape="3738.150703,3252.243878 3786.490251,3309.335605 3906.336384,3275.292495 3809.286753,3173.568676 3736.597000,3226.128199 3738.150703,3252.243878"/>
    <poly id="209615130" type="water" color="181,209,209" fill="0" layer="-4.00" shape="-3717.007917,738.510674 -3412.334782,795.854218 -3322.257981,811.128561 -2826.815133,908.882769 -2635.742660,951.523768 -2413.362189,1005.277818 -2258.247161,1041.216173 -2115.750900,1077.744942 -2009.191880,1105.494536 -1896.357275,1129.838644 -1875.041661,1133.339855 -1757.516262,1138.863020 -1571.313241,1146.370600 -1441.309623,1151.054140 -1293.457136,1149.796885 -1194.750661,1155.088099 -993.677314,1159.478209 -891.796806,1147.967094 -806.301088,1146.539224 -741.564236,1141.586127 -705.519730,1127.698492 -665.917543,1125.758489 -603.635060,1131.684589 -527.422034,1126.999426 -394.410853,1105.419615 -316.033734,1086.601296 -249.120204,1070.240916 -202.441231,1035.700629 -136.363140,1006.028586 -82.017348,990.222367 22.572522,948.291491 145.739528,913.955281 259.886087,868.219617 363.102146,820.311825 468.773192,772.414015 538.143061,742.742923 616.518716,717.406851 714.013884,682.010851 830.903251,657.466032 972.951415,646.216320 1053.529278,640.728924 1135.739231,625.173051 1220.448489,589.480312 1245.185737,584.267736 1276.495013,584.820849 1308.373338,575.383372 1321.897719,577.101378 1334.085167,584.978437 1352.443360,593.415914 1406.555953,593.764629 1462.225160,603.338500 1572.401679,637.860831 1709.637579,678.135758 1785.602922,698.263191 1857.119679,722.813306 1905.244811,729.891174 2019.834816,770.727554 2123.103471,791.204286 2297.077438,813.474495 2535.915074,839.394409 2668.308654,850.376575 2755.951144,862.428481 3002.198773,887.832145 3102.555579,894.618008 3180.916507,888.248364 3286.556186,872.393975 3436.918957,840.699452 3537.782285,810.628671 3672.845028,760.581910 3921.789641,640.711483 4099.792028,555.537292 4212.543839,507.268630 4267.660867,488.645438 4311.696728,485.478429 4378.558049,506.866377 4560.114514,574.530060 4606.374820,590.579315 4700.813598,646.312925 4779.718772,696.062289 4919.162798,811.962536 4981.282953,881.579216 5032.729676,947.423987 5179.382209,1135.149758 5343.048468,1343.548642 5369.937362,1376.288536 5457.122843,1479.490037 5522.852938,1548.365931 5564.249541,1588.753872 5600.761111,1612.209121 5639.708117,1639.373898"/>
    <poly id="210669885" type="amenity" color="237,199,199" fill="1" layer="-1.00" shape="3303.750035,2789.928429 3288.823451,2885.830301 3313.363261,2924.359804 3402.060628,2860.070802 3336.507618,2796.621757 3320.589095,2790.295459 3303.750035,2789.928429"/>
    <poly id="210670161" type="tourism" color="207,245,201" fill="1" layer="-2.00" shape="4259.038856,2859.653588 4325.121899,2858.879203 4392.277113,2773.940440 4408.575657,2786.592129 4420.548104,2768.898507 4418.104533,2748.786216 4403.106035,2712.675571 4386.640583,2724.977508 4348.087863,2751.622097 4320.774499,2785.150413 4259.038856,2859.653588"/>
    <poly id="210670162" type="tourism" color="207,245,201" fill="1" layer="-2.00" shape="4170.612299,2838.243747 4077.500950,2923.983185 4106.342525,2948.169022 4119.265724,2965.296624 4125.265915,2984.842216 4238.998867,2834.709913 4293.206615,2765.139004 4240.874803,2791.037520 4170.612299,2838.243747"/>
    <poly id="212503396" type="amenity" color="237,199,199" fill="1" layer="-1.00" shape="3042.803498,3163.286003 3054.549667,3153.222361 3239.010862,3125.658717 3280.975122,3374.096024 3157.989822,3386.405300 3142.955806,3379.613532 3090.041770,3403.756162 2913.990622,3483.716146 2912.426092,3458.918573 2915.708121,3448.738033 2949.322359,3428.526950 2960.716670,3411.995213 2950.823654,3363.943609 3076.453359,3337.985493 3042.803498,3163.286003"/>
    <poly id="212503397" type="amenity" color="237,199,199" fill="1" layer="-1.00" shape="2966.809962,3351.507156 2945.847655,3265.472474 2964.973931,3254.186024 2956.880706,3209.201325 2951.385146,3155.786477 3029.826113,3157.501050 3066.138609,3332.420457 2966.809962,3351.507156"/>
    <poly id="212503401" type="college" color="237,199,199" fill="1" layer="-2.00" shape="2951.385146,3155.786477 2951.205800,3138.209443 3018.988908,3142.256197 3005.762705,2950.875882 2963.403597,2968.843627 2916.140334,2992.252616 2777.354612,3116.129530 2744.737816,3143.838703 2656.467528,3215.408845 2670.593878,3247.685791 2675.442128,3280.555492 2672.756452,3307.083466 2661.937650,3322.086659 2647.839461,3335.164720 2644.752371,3339.009903 2644.573827,3371.495063 2645.362495,3393.789973 2740.929176,3559.423703 2858.782839,3508.027262 2903.709212,3483.977045 2904.065041,3447.836797 2945.026819,3421.673647 2953.135167,3408.787769 2944.600440,3356.316155 2966.809962,3351.507156 2945.847655,3265.472474 2964.973931,3254.186024 2956.880706,3209.201325 2951.385146,3155.786477"/>
    <poly id="212818776" type="school" color="237,199,199" fill="1" layer="-2.00" shape="3288.823451,2885.830301 3313.363261,2924.359804 3369.594378,3017.806971 3261.669214,3088.276344 3279.355694,2955.058809 3288.823451,2885.830301"/>
    <poly id="212818777" type="school" color="237,199,199" fill="1" layer="-2.00" shape="3257.692474,2995.940495 3170.524049,2986.952808 3146.939781,2969.289644 3086.252038,2970.665142 3088.400226,3008.731070 3071.978910,3008.740679 3073.360479,3060.828894 3078.188621,3061.025429 3080.149755,3101.971152 3096.769633,3101.961437 3102.003695,3133.867481 3229.544869,3110.534732 3240.171786,3105.910075 3245.380080,3093.413703 3257.692474,2995.940495"/>
    <poly id="212818778" type="tourism" color="207,245,201" fill="1" layer="-2.00" shape="3958.809018,3277.281113 4011.369420,3276.102254 4099.497811,3263.375819 4150.898620,3247.578200 4171.953367,3236.613815 4124.578817,3179.353997 4084.935138,3127.085591 4072.178027,3123.824715 4065.414814,3127.671410 3957.842544,3271.710533 3958.809018,3277.281113"/>
    <poly id="212818779" type="building" color="255,230,230" fill="1" layer="-1.00" shape="4395.223221,3115.989777 4371.969785,3162.219875 4390.411950,3171.403818 4413.675365,3125.162672 4395.223221,3115.989777"/>
    <poly id="212818779#1" type="leisure" color="207,245,201" fill="1" layer="-2.00" shape="4395.223221,3115.989777 4371.969785,3162.219875 4390.411950,3171.403818 4413.675365,3125.162672 4395.223221,3115.989777"/>
    <poly id="212818779#2" type="sport" color="79,230,125" fill="1" layer="-2.00" shape="4395.223221,3115.989777 4371.969785,3162.219875 4390.411950,3171.403818 4413.675365,3125.162672 4395.223221,3115.989777"/>
    <poly id="212818780" type="building" color="255,230,230" fill="1" layer="-1.00" shape="4430.183562,2704.566266 4452.354287,2739.865000 4477.540662,2724.214151 4455.360046,2688.915378 4430.183562,2704.566266"/>
    <poly id="212818782" type="school" color="237,199,199" fill="1" layer="-2.00" shape="4402.942499,2827.264786 4448.607871,2862.585485 4548.649206,2867.433663 4570.771408,2842.680212 4624.875794,2803.502487 4648.944409,2841.281647 4610.400904,2845.375318 4618.100600,2932.371341 4582.026666,2948.425708 4745.232697,3026.102104 4821.775642,3047.554512 4802.947073,3106.817927 4774.816547,3157.668033 4751.326546,3188.945343 4656.231502,3241.188518 4543.316160,3167.565423 4415.907910,3078.189562 4390.169283,2976.792828 4374.278112,2902.039530 4370.721054,2880.288579 4402.942499,2827.264786"/>
    <poly id="212818785" type="commercial" color="209,209,204" fill="1" layer="-3.00" shape="4174.006833,2812.236321 4230.575343,2776.057187 4326.753549,2720.819871 4491.464186,2609.485527 4357.643818,2441.520239 4256.426527,2577.678775 4232.465060,2579.230102 4159.390743,2548.509191 4053.526858,2645.065022 4145.195310,2749.218930 4152.164420,2779.197349 4174.006833,2812.236321"/>
    <poly id="212818786" type="commercial" color="209,209,204" fill="1" layer="-3.00" shape="3568.613764,2848.149851 3614.279562,2806.856935 3625.475716,2770.323215 3542.308118,2668.095581 3544.235020,2649.254767 3634.836091,2572.306873 3639.080611,2558.459961 3615.291981,2530.606403 3502.281028,2630.438083 3406.084691,2719.119229 3334.984991,2774.327239 3344.469815,2787.391207 3406.075925,2845.548316 3510.781968,2769.178636 3568.613764,2848.149851"/>
    <poly id="212818790" type="commercial" color="209,209,204" fill="1" layer="-3.00" shape="4087.955559,2891.991285 4167.495030,2822.595343 4114.425566,2743.785129 4041.133427,2654.640722 4013.501617,2608.170128 3970.003213,2521.469759 3894.219318,2402.157326 3781.379375,2474.806642 3728.091909,2497.396152 3681.623299,2508.020474 3667.681922,2502.323991 3655.665980,2511.567595 3638.172400,2514.024771 3672.656041,2607.263507 3698.896314,2594.468064 3886.512296,2806.966857 3884.322324,2817.578516 3920.425346,2858.606277 3941.186448,2836.034336 3951.086819,2808.616875 3988.793119,2780.055405 4060.112498,2858.556778 4087.955559,2891.991285"/>
    <poly id="212818792" type="residential" color="235,235,227" fill="1" layer="-3.00" shape="3102.003695,3133.867481 3096.769633,3101.961437 3080.149755,3101.971152 3078.188621,3061.025429 3073.360479,3060.828894 3071.978910,3008.740679 3088.400226,3008.731070 3086.252038,2970.665142 3146.939781,2969.289644 3170.524049,2986.952808 3257.692474,2995.940495 3268.090058,2885.122187 3267.290626,2842.071403 3268.253996,2824.183601 3227.866700,2834.595701 3195.785600,2846.719876 3164.298590,2872.500127 3152.716553,2892.110820 3128.754263,2908.084809 3103.639090,2923.095932 3071.369135,2934.456313 3032.725690,2936.206822 3019.584417,2939.293613 3029.138918,3087.115364 3038.639573,3143.817367 3102.003695,3133.867481"/>
    <poly id="212818808" type="commercial" color="209,209,204" fill="1" layer="-3.00" shape="3402.060628,2860.070802 3470.665465,2928.303201 3369.594378,3017.806971 3313.363261,2924.359804 3402.060628,2860.070802"/>
    <poly id="212818810" type="residential" color="235,235,227" fill="1" layer="-3.00" shape="3693.804278,3010.086310 3803.846941,3143.667152 3886.351049,3069.405608 3780.687337,2950.220147 3693.804278,3010.086310"/>
    <poly id="212818811" type="commercial" color="209,209,204" fill="1" layer="-3.00" shape="3576.469321,2861.702215 3620.460428,2828.240752 3664.731425,2815.989253 3780.687337,2950.220147 3693.804278,3010.086310 3576.469321,2861.702215"/>
    <poly id="212818815" type="commercial" color="209,209,204" fill="1" layer="-3.00" shape="3567.455157,2873.126183 3793.371508,3153.297469 3713.873142,3217.501287 3608.025138,3088.969457 3502.715099,2931.076557 3567.455157,2873.126183"/>
    <poly id="212818815#1" type="leisure" color="207,245,201" fill="1" layer="-2.00" shape="3567.455157,2873.126183 3793.371508,3153.297469 3713.873142,3217.501287 3608.025138,3088.969457 3502.715099,2931.076557 3567.455157,2873.126183"/>
    <poly id="212818822" type="commercial" color="209,209,204" fill="1" layer="-3.00" shape="4052.512355,2466.713664 3979.861624,2508.461829 4030.279985,2605.979653 4044.231870,2632.886484 4144.227143,2541.760601 4052.512355,2466.713664"/>
    <poly id="212818826" type="commercial" color="209,209,204" fill="1" layer="-3.00" shape="4020.254715,2272.606475 3959.412815,2347.808380 4016.662110,2416.215699 4050.308221,2449.846506 4085.499974,2475.590732 4144.957009,2332.717655 4020.254715,2272.606475"/>