<?xml version="1.0" encoding="UTF-8"?>

<!-- generated on 2024-07-16 18:25:45.264696 by randomTrips.py v1_20_0+1224-eecd3762986
<configuration>
    <net-file value="lucknow.net.xml"/>
    <route-file value="lucknow.rou.xml"/>
    <length value="True"/>
    <end value="50.0"/>
</configuration>
-->

<routes xmlns:xsi="http://www.w3.org/2001/XMLSchema-instance" xsi:noNamespaceSchemaLocation="http://sumo.dlr.de/xsd/routes_file.xsd">
    <trip id="0" depart="0.00" from="210670004" to="-1202717864"/>
    <trip id="1" depart="1.00" from="-213249504#7" to="-213237726#0"/>
    <trip id="2" depart="2.00" from="210670155#2" to="210670084#1"/>
    <trip id="3" depart="3.00" from="213477335#2" to="-210669909#2"/>
    <trip id="4" depart="4.00" from="-756134697" to="-1264641199"/>
    <trip id="5" depart="5.00" from="-213237678#0" to="209432828#8"/>
    <trip id="6" depart="6.00" from="-1135123904#2" to="-212819188#0"/>
    <trip id="7" depart="7.00" from="210670036#32" to="210669882#0"/>
    <trip id="8" depart="8.00" from="-213237681" to="210669928#1"/>
    <trip id="9" depart="9.00" from="213249447#1" to="-1107087154"/>
    <trip id="10" depart="10.00" from="213249445#0" to="210670122#0"/>
    <trip id="11" depart="11.00" from="-213514474#1" to="-210670127#1"/>
    <trip id="12" depart="12.00" from="213889315#2" to="-213516670"/>
    <trip id="13" depart="13.00" from="-210669909#3" to="-210669954"/>
    <trip id="14" depart="14.00" from="213249526#1" to="210669982#9"/>
    <trip id="15" depart="15.00" from="213249446#2" to="210670159#3"/>
    <trip id="16" depart="16.00" from="209615260#2" to="47295010#7"/>
    <trip id="17" depart="17.00" from="-213823231" to="210669890#7"/>
    <trip id="18" depart="18.00" from="213249486#2" to="210669986#5"/>
    <trip id="19" depart="19.00" from="213249551#1" to="210669908#3"/>
    <trip id="20" depart="20.00" from="210670116#2" to="-209615264#3"/>
    <trip id="21" depart="21.00" from="-213237698#4" to="-213249551#1"/>
    <trip id="22" depart="22.00" from="-210669896#12" to="-213237829#0"/>
    <trip id="23" depart="23.00" from="-210669949" to="-213249534#4"/>
    <trip id="24" depart="24.00" from="210669990#1" to="-213823231"/>
    <trip id="25" depart="25.00" from="-213521667" to="-213237678#8"/>
    <trip id="26" depart="26.00" from="-213249481" to="213823231"/>
    <trip id="27" depart="27.00" from="210670036#17" to="210669984#11"/>
    <trip id="28" depart="28.00" from="-210670139#0" to="210670158#1"/>
    <trip id="29" depart="29.00" from="-210670130#0" to="-213883993#3"/>
    <trip id="30" depart="30.00" from="994845765" to="210670036#25"/>
    <trip id="31" depart="31.00" from="210669882#2" to="210670096#2"/>
    <trip id="32" depart="32.00" from="213249513#0" to="213237692#4"/>
    <trip id="33" depart="33.00" from="-213237698#5" to="-209420540#1"/>
    <trip id="34" depart="34.00" from="-213252682#2" to="-213249506#2"/>
    <trip id="35" depart="35.00" from="-212885399" to="213865256#0"/>
    <trip id="36" depart="36.00" from="213249582#4" to="-213477307#0"/>
    <trip id="37" depart="37.00" from="210670049#1" to="-214304691#6"/>
    <trip id="38" depart="38.00" from="213516675#0" to="1229584531#0"/>
    <trip id="39" depart="39.00" from="-213249467#9" to="-213249459#3"/>
    <trip id="40" depart="40.00" from="210669890#1" to="-213249504#7"/>
    <trip id="41" depart="41.00" from="210669905#2" to="213514470#1"/>
    <trip id="42" depart="42.00" from="-214304495#1" to="-213237702#1"/>
    <trip id="43" depart="43.00" from="996187116#1" to="209442104#2"/>
    <trip id="44" depart="44.00" from="-210669908#5" to="-209615264#9"/>
    <trip id="45" depart="45.00" from="-210669985#12" to="210669996"/>
    <trip id="46" depart="46.00" from="213237711" to="1081678438"/>
    <trip id="47" depart="47.00" from="-210669882#7" to="-213889315#0"/>
    <trip id="48" depart="48.00" from="995140950" to="209615268"/>
    <trip id="49" depart="49.00" from="214304694#0" to="213249557#1"/>
</routes>
