<?xml version="1.0" encoding="UTF-8"?>

<!-- generated on 2024-07-13 16:19:57 by Eclipse SUMO netconvert Version 1.15.0
<configuration xmlns:xsi="http://www.w3.org/2001/XMLSchema-instance" xsi:noNamespaceSchemaLocation="http://sumo.dlr.de/xsd/netconvertConfiguration.xsd">

    <input>
        <osm-files value="hyderabad.osm"/>
    </input>

    <output>
        <output-file value="hyderabad.net.xml"/>
    </output>

    <projection>
        <proj.utm value="true"/>
    </projection>

</configuration>
-->

<net version="1.9" junctionCornerDetail="5" limitTurnSpeed="5.50" xmlns:xsi="http://www.w3.org/2001/XMLSchema-instance" xsi:noNamespaceSchemaLocation="http://sumo.dlr.de/xsd/net_file.xsd">

    <location netOffset="-233389.86,-1919916.70" convBoundary="0.00,0.00,6022.55,3101.01" origBoundary="78.491002,17.349807,78.547888,17.377155" projParameter="+proj=utm +zone=44 +ellps=WGS84 +datum=WGS84 +units=m +no_defs"/>

    <type id="highway.bridleway" priority="1" numLanes="1" speed="2.78" allow="pedestrian" oneway="1" width="2.00"/>
    <type id="highway.bus_guideway" priority="1" numLanes="1" speed="27.78" allow="bus" oneway="1"/>
    <type id="highway.cycleway" priority="1" numLanes="1" speed="5.56" allow="bicycle" oneway="0" width="1.00"/>
    <type id="highway.footway" priority="1" numLanes="1" speed="2.78" allow="pedestrian" oneway="1" width="2.00"/>
    <type id="highway.ford" priority="1" numLanes="1" speed="2.78" allow="army" oneway="0"/>
    <type id="highway.living_street" priority="2" numLanes="1" speed="2.78" disallow="tram rail_urban rail rail_electric rail_fast ship" oneway="0"/>
    <type id="highway.motorway" priority="14" numLanes="2" speed="39.44" allow="private emergency authority army vip passenger hov taxi bus coach delivery truck trailer motorcycle evehicle custom1 custom2" oneway="1"/>
    <type id="highway.motorway_link" priority="9" numLanes="1" speed="22.22" allow="private emergency authority army vip passenger hov taxi bus coach delivery truck trailer motorcycle evehicle custom1 custom2" oneway="1"/>
    <type id="highway.path" priority="1" numLanes="1" speed="5.56" allow="pedestrian bicycle" oneway="0" width="2.00"/>
    <type id="highway.pedestrian" priority="1" numLanes="1" speed="2.78" allow="pedestrian" oneway="1" width="2.00"/>
    <type id="highway.primary" priority="12" numLanes="2" speed="27.78" disallow="tram rail_urban rail rail_electric rail_fast ship" oneway="0"/>
    <type id="highway.primary_link" priority="7" numLanes="1" speed="22.22" disallow="tram rail_urban rail rail_electric rail_fast ship" oneway="0"/>
    <type id="highway.raceway" priority="15" numLanes="2" speed="83.33" allow="vip" oneway="0"/>
    <type id="highway.residential" priority="3" numLanes="1" speed="13.89" disallow="tram rail_urban rail rail_electric rail_fast ship" oneway="0"/>
    <type id="highway.secondary" priority="11" numLanes="1" speed="27.78" disallow="tram rail_urban rail rail_electric rail_fast ship" oneway="0"/>
    <type id="highway.secondary_link" priority="6" numLanes="1" speed="22.22" disallow="tram rail_urban rail rail_electric rail_fast ship" oneway="0"/>
    <type id="highway.service" priority="1" numLanes="1" speed="5.56" allow="pedestrian delivery bicycle" oneway="0"/>
    <type id="highway.stairs" priority="1" numLanes="1" speed="1.39" allow="pedestrian" oneway="1" width="2.00"/>
    <type id="highway.step" priority="1" numLanes="1" speed="1.39" allow="pedestrian" oneway="1" width="2.00"/>
    <type id="highway.steps" priority="1" numLanes="1" speed="1.39" allow="pedestrian" oneway="1" width="2.00"/>
    <type id="highway.tertiary" priority="10" numLanes="1" speed="22.22" disallow="tram rail_urban rail rail_electric rail_fast ship" oneway="0"/>
    <type id="highway.tertiary_link" priority="5" numLanes="1" speed="22.22" disallow="tram rail_urban rail rail_electric rail_fast ship" oneway="0"/>
    <type id="highway.track" priority="1" numLanes="1" speed="5.56" allow="pedestrian motorcycle moped bicycle" oneway="0"/>
    <type id="highway.trunk" priority="13" numLanes="2" speed="27.78" disallow="pedestrian bicycle tram rail_urban rail rail_electric rail_fast ship" oneway="0"/>
    <type id="highway.trunk_link" priority="8" numLanes="1" speed="22.22" disallow="pedestrian bicycle tram rail_urban rail rail_electric rail_fast ship" oneway="0"/>
    <type id="highway.unclassified" priority="4" numLanes="1" speed="13.89" disallow="tram rail_urban rail rail_electric rail_fast ship" oneway="0"/>
    <type id="highway.unsurfaced" priority="1" numLanes="1" speed="8.33" disallow="tram rail_urban rail rail_electric rail_fast ship" oneway="0"/>
    <type id="railway.highspeed" priority="21" numLanes="1" speed="69.44" allow="rail_fast" oneway="1"/>
    <type id="railway.light_rail" priority="19" numLanes="1" speed="27.78" allow="rail_urban" oneway="1"/>
    <type id="railway.preserved" priority="16" numLanes="1" speed="27.78" allow="rail" oneway="1"/>
    <type id="railway.rail" priority="20" numLanes="1" speed="44.44" allow="rail" oneway="1"/>
    <type id="railway.subway" priority="18" numLanes="1" speed="27.78" allow="rail_urban" oneway="1"/>
    <type id="railway.tram" priority="17" numLanes="1" speed="13.89" allow="tram" oneway="1"/>

    <edge id=":10211205749_0" function="internal">
        <lane id=":10211205749_0_0" index="0" disallow="tram rail_urban rail rail_electric rail_fast ship" speed="7.82" length="12.88" shape="280.01,2171.61 278.14,2171.07 273.97,2170.87 269.63,2170.85 267.21,2170.86"/>
    </edge>
    <edge id=":10211205749_1" function="internal">
        <lane id=":10211205749_1_0" index="0" disallow="tram rail_urban rail rail_electric rail_fast ship" speed="13.89" length="1.78" shape="280.01,2171.61 279.34,2169.96"/>
    </edge>
    <edge id=":10211205749_2" function="internal">
        <lane id=":10211205749_2_0" index="0" disallow="tram rail_urban rail rail_electric rail_fast ship" speed="5.14" length="1.69" shape="280.01,2171.61 278.98,2170.27"/>
    </edge>
    <edge id=":10211205749_9" function="internal">
        <lane id=":10211205749_9_0" index="0" disallow="tram rail_urban rail rail_electric rail_fast ship" speed="13.89" length="10.55" shape="279.34,2169.96 278.84,2168.72 276.41,2166.87 273.99,2165.02 272.83,2162.13"/>
    </edge>
    <edge id=":10211205749_10" function="internal">
        <lane id=":10211205749_10_0" index="0" disallow="tram rail_urban rail rail_electric rail_fast ship" speed="5.14" length="3.79" shape="278.98,2170.27 278.83,2169.23 279.58,2168.49 281.21,2168.05"/>
    </edge>
    <edge id=":10211205749_3" function="internal">
        <lane id=":10211205749_3_0" index="0" disallow="tram rail_urban rail rail_electric rail_fast ship" speed="6.60" length="8.93" shape="276.03,2162.04 276.41,2164.62 277.41,2166.48 279.01,2167.62 281.21,2168.05"/>
    </edge>
    <edge id=":10211205749_4" function="internal">
        <lane id=":10211205749_4_0" index="0" disallow="tram rail_urban rail rail_electric rail_fast ship" speed="7.90" length="14.41" shape="276.03,2162.04 275.57,2166.00 273.95,2168.79 271.17,2170.41 267.21,2170.86"/>
    </edge>
    <edge id=":10211205749_5" function="internal">
        <lane id=":10211205749_5_0" index="0" disallow="tram rail_urban rail rail_electric rail_fast ship" speed="3.65" length="4.67" shape="276.03,2162.04 275.26,2163.26 274.47,2163.69 273.66,2163.31 272.83,2162.13"/>
    </edge>
    <edge id=":10211205749_6" function="internal">
        <lane id=":10211205749_6_0" index="0" disallow="tram rail_urban rail rail_electric rail_fast ship" speed="6.39" length="9.04" shape="267.30,2167.67 269.78,2167.38 271.53,2166.36 272.54,2164.61 272.83,2162.13"/>
    </edge>
    <edge id=":10211205749_7" function="internal">
        <lane id=":10211205749_7_0" index="0" disallow="tram rail_urban rail rail_electric rail_fast ship" speed="13.89" length="13.92" shape="267.30,2167.67 281.21,2168.05"/>
    </edge>
    <edge id=":10211205749_8" function="internal">
        <lane id=":10211205749_8_0" index="0" disallow="tram rail_urban rail rail_electric rail_fast ship" speed="3.65" length="1.44" shape="267.30,2167.67 268.48,2168.50"/>
    </edge>
    <edge id=":10211205749_11" function="internal">
        <lane id=":10211205749_11_0" index="0" disallow="tram rail_urban rail rail_electric rail_fast ship" speed="3.65" length="3.23" shape="268.48,2168.50 268.86,2169.31 268.43,2170.10 267.21,2170.86"/>
    </edge>
    <edge id=":10243876962_0" function="internal">
        <lane id=":10243876962_0_0" index="0" disallow="tram rail_urban rail rail_electric rail_fast ship" speed="27.78" length="8.91" shape="911.55,2552.06 907.80,2560.15"/>
        <lane id=":10243876962_0_1" index="1" disallow="tram rail_urban rail rail_electric rail_fast ship" speed="27.78" length="8.91" shape="908.65,2550.70 904.91,2558.79"/>
    </edge>
    <edge id=":10243876962_2" function="internal">
        <lane id=":10243876962_2_0" index="0" allow="pedestrian delivery bicycle" speed="6.10" length="7.84" shape="908.65,2550.70 907.37,2553.14 906.03,2554.69 904.62,2555.35 903.15,2555.13"/>
    </edge>
    <edge id=":10243876962_3" function="internal">
        <lane id=":10243876962_3_0" index="0" allow="pedestrian delivery bicycle" speed="5.91" length="7.39" shape="904.44,2552.20 905.57,2553.10 906.03,2554.50 905.80,2556.39 904.91,2558.79"/>
    </edge>
    <edge id=":10243876962_4" function="internal">
        <lane id=":10243876962_4_0" index="0" allow="pedestrian delivery bicycle" speed="3.65" length="4.67" shape="904.44,2552.20 905.21,2553.42 905.26,2554.31 904.57,2554.88 903.15,2555.13"/>
    </edge>
    <edge id=":10243876963_0" function="internal">
        <lane id=":10243876963_0_0" index="0" allow="pedestrian delivery bicycle" speed="3.65" length="4.67" shape="849.70,2531.73 848.92,2530.51 848.88,2529.62 849.57,2529.05 850.99,2528.80"/>
    </edge>
    <edge id=":10277673836_0" function="internal">
        <lane id=":10277673836_0_0" index="0" disallow="tram rail_urban rail rail_electric rail_fast ship" speed="10.97" length="13.64" shape="929.05,2466.63 927.72,2462.37 926.14,2459.06 924.32,2456.69 922.25,2455.26"/>
    </edge>
    <edge id=":10277673836_1" function="internal">
        <lane id=":10277673836_1_0" index="0" disallow="tram rail_urban rail rail_electric rail_fast ship" speed="7.38" length="17.93" shape="929.05,2466.63 928.34,2461.12 929.65,2457.97 932.97,2457.19 938.29,2458.77"/>
    </edge>
    <edge id=":10277673836_2" function="internal">
        <lane id=":10277673836_2_0" index="0" disallow="tram rail_urban rail rail_electric rail_fast ship" speed="3.65" length="4.67" shape="929.05,2466.63 929.53,2465.27 930.20,2464.69 931.08,2464.88 932.15,2465.84"/>
    </edge>
    <edge id=":10277673836_3" function="internal">
        <lane id=":10277673836_3_0" index="0" disallow="tram rail_urban rail rail_electric rail_fast ship" speed="5.54" length="9.44" shape="937.02,2461.70 934.21,2460.87 932.47,2461.28 931.78,2462.94 932.15,2465.84"/>
    </edge>
    <edge id=":10277673836_4" function="internal">
        <lane id=":10277673836_4_0" index="0" disallow="tram rail_urban rail rail_electric rail_fast ship" speed="13.89" length="16.11" shape="937.02,2461.70 922.25,2455.26"/>
    </edge>
    <edge id=":10277673836_5" function="internal">
        <lane id=":10277673836_5_0" index="0" disallow="tram rail_urban rail rail_electric rail_fast ship" speed="3.65" length="1.44" shape="937.02,2461.70 936.23,2460.49"/>
    </edge>
    <edge id=":10277673836_9" function="internal">
        <lane id=":10277673836_9_0" index="0" disallow="tram rail_urban rail rail_electric rail_fast ship" speed="3.65" length="3.23" shape="936.23,2460.49 936.19,2459.59 936.87,2459.02 938.29,2458.77"/>
    </edge>
    <edge id=":10277673836_6" function="internal">
        <lane id=":10277673836_6_0" index="0" disallow="tram rail_urban rail rail_electric rail_fast ship" speed="13.89" length="16.11" shape="923.53,2452.33 938.29,2458.77"/>
    </edge>
    <edge id=":10277673836_7" function="internal">
        <lane id=":10277673836_7_0" index="0" disallow="tram rail_urban rail rail_electric rail_fast ship" speed="12.03" length="3.51" shape="923.53,2452.33 926.25,2454.12 926.41,2454.32"/>
    </edge>
    <edge id=":10277673836_8" function="internal">
        <lane id=":10277673836_8_0" index="0" disallow="tram rail_urban rail rail_electric rail_fast ship" speed="3.65" length="1.44" shape="923.53,2452.33 924.31,2453.54"/>
    </edge>
    <edge id=":10277673836_10" function="internal">
        <lane id=":10277673836_10_0" index="0" disallow="tram rail_urban rail rail_electric rail_fast ship" speed="12.03" length="13.02" shape="926.41,2454.32 928.59,2456.98 930.56,2460.88 932.15,2465.84"/>
    </edge>
    <edge id=":10277673836_11" function="internal">
        <lane id=":10277673836_11_0" index="0" disallow="tram rail_urban rail rail_electric rail_fast ship" speed="3.65" length="3.23" shape="924.31,2453.54 924.35,2454.44 923.67,2455.01 922.25,2455.26"/>
    </edge>
    <edge id=":10277673837_0" function="internal">
        <lane id=":10277673837_0_0" index="0" disallow="tram rail_urban rail rail_electric rail_fast ship" speed="27.78" length="12.76" shape="942.87,2482.72 937.15,2494.13"/>
        <lane id=":10277673837_0_1" index="1" disallow="tram rail_urban rail rail_electric rail_fast ship" speed="27.78" length="12.76" shape="940.01,2481.29 934.29,2492.70"/>
    </edge>
    <edge id=":10277673837_2" function="internal">
        <lane id=":10277673837_2_0" index="0" disallow="tram rail_urban rail rail_electric rail_fast ship" speed="5.94" length="12.16" shape="940.01,2481.29 937.77,2484.89 935.84,2486.15 934.21,2485.07 932.89,2481.65"/>
    </edge>
    <edge id=":10277673837_3" function="internal">
        <lane id=":10277673837_3_0" index="0" disallow="tram rail_urban rail rail_electric rail_fast ship" speed="12.42" length="12.35" shape="935.99,2480.86 936.62,2484.00 936.61,2486.59 935.86,2489.27 934.29,2492.70"/>
    </edge>
    <edge id=":10277673837_4" function="internal">
        <lane id=":10277673837_4_0" index="0" disallow="tram rail_urban rail rail_electric rail_fast ship" speed="3.65" length="4.67" shape="935.99,2480.86 935.51,2482.22 934.83,2482.80 933.96,2482.61 932.89,2481.65"/>
    </edge>
    <edge id=":10279396656_0" function="internal">
        <lane id=":10279396656_0_0" index="0" disallow="tram rail_urban rail rail_electric rail_fast ship" speed="3.65" length="4.67" shape="1496.30,2035.02 1497.65,2035.54 1498.21,2036.24 1497.99,2037.11 1496.99,2038.15"/>
    </edge>
    <edge id=":10807159121_0" function="internal">
        <lane id=":10807159121_0_0" index="0" allow="pedestrian delivery bicycle" speed="5.56" length="0.10" shape="896.44,2552.19 896.44,2552.19"/>
    </edge>
    <edge id=":10807159121_1" function="internal">
        <lane id=":10807159121_1_0" index="0" allow="pedestrian delivery bicycle" speed="5.56" length="0.10" shape="897.72,2549.26 897.72,2549.26"/>
    </edge>
    <edge id=":10836315955_0" function="internal">
        <lane id=":10836315955_0_0" index="0" allow="pedestrian delivery bicycle" speed="3.65" length="4.67" shape="200.87,2531.34 200.86,2529.90 201.30,2529.12 202.18,2529.00 203.52,2529.54"/>
    </edge>
    <edge id=":10836315960_0" function="internal">
        <lane id=":10836315960_0_0" index="0" allow="pedestrian delivery bicycle" speed="5.56" length="6.37" shape="285.10,2537.75 283.97,2536.51 282.67,2535.90 281.19,2535.92 279.52,2536.56"/>
    </edge>
    <edge id=":10836315960_1" function="internal">
        <lane id=":10836315960_1_0" index="0" allow="pedestrian delivery bicycle" speed="5.56" length="10.44" shape="285.10,2537.75 283.40,2535.23 282.12,2533.46 280.75,2531.76 278.78,2529.45"/>
    </edge>
    <edge id=":10836315960_2" function="internal">
        <lane id=":10836315960_2_0" index="0" allow="pedestrian delivery bicycle" speed="5.56" length="10.89" shape="285.10,2537.75 283.78,2535.00 283.75,2532.60 285.00,2530.56 287.53,2528.86"/>
    </edge>
    <edge id=":10836315960_3" function="internal">
        <lane id=":10836315960_3_0" index="0" allow="pedestrian delivery bicycle" speed="3.65" length="4.67" shape="285.10,2537.75 285.10,2536.31 285.54,2535.53 286.43,2535.42 287.76,2535.97"/>
    </edge>
    <edge id=":10836315960_4" function="internal">
        <lane id=":10836315960_4_0" index="0" allow="pedestrian delivery bicycle" speed="4.90" length="5.18" shape="288.92,2531.75 287.71,2532.55 287.12,2533.53 287.13,2534.67 287.76,2535.97"/>
    </edge>
    <edge id=":10836315960_5" function="internal">
        <lane id=":10836315960_5_0" index="0" allow="pedestrian delivery bicycle" speed="5.56" length="10.55" shape="288.92,2531.75 279.52,2536.56"/>
    </edge>
    <edge id=":10836315960_6" function="internal">
        <lane id=":10836315960_6_0" index="0" allow="pedestrian delivery bicycle" speed="5.56" length="11.28" shape="288.92,2531.75 286.11,2532.64 283.49,2532.56 281.05,2531.49 278.78,2529.45"/>
    </edge>
    <edge id=":10836315960_7" function="internal">
        <lane id=":10836315960_7_0" index="0" allow="pedestrian delivery bicycle" speed="3.65" length="4.67" shape="288.92,2531.75 287.49,2531.54 286.78,2530.99 286.80,2530.10 287.53,2528.86"/>
    </edge>
    <edge id=":10836315960_8" function="internal">
        <lane id=":10836315960_8_0" index="0" allow="pedestrian delivery bicycle" speed="5.56" length="7.05" shape="281.21,2527.36 282.64,2528.66 284.17,2529.34 285.80,2529.41 287.53,2528.86"/>
    </edge>
    <edge id=":10836315960_9" function="internal">
        <lane id=":10836315960_9_0" index="0" allow="pedestrian delivery bicycle" speed="5.56" length="10.82" shape="281.21,2527.36 283.22,2529.73 284.66,2531.53 286.02,2533.41 287.76,2535.97"/>
    </edge>
    <edge id=":10836315960_10" function="internal">
        <lane id=":10836315960_10_0" index="0" allow="pedestrian delivery bicycle" speed="5.56" length="11.26" shape="281.21,2527.36 282.92,2530.05 283.21,2532.48 282.07,2534.65 279.52,2536.56"/>
    </edge>
    <edge id=":10836315960_11" function="internal">
        <lane id=":10836315960_11_0" index="0" allow="pedestrian delivery bicycle" speed="3.65" length="4.67" shape="281.21,2527.36 281.39,2528.80 281.04,2529.62 280.17,2529.84 278.78,2529.45"/>
    </edge>
    <edge id=":10836315960_12" function="internal">
        <lane id=":10836315960_12_0" index="0" allow="pedestrian delivery bicycle" speed="4.85" length="5.27" shape="277.99,2533.75 279.19,2532.86 279.72,2531.84 279.58,2530.71 278.78,2529.45"/>
    </edge>
    <edge id=":10836315960_13" function="internal">
        <lane id=":10836315960_13_0" index="0" allow="pedestrian delivery bicycle" speed="5.56" length="10.72" shape="277.99,2533.75 287.53,2528.86"/>
    </edge>
    <edge id=":10836315960_14" function="internal">
        <lane id=":10836315960_14_0" index="0" allow="pedestrian delivery bicycle" speed="5.56" length="11.21" shape="277.99,2533.75 280.88,2532.65 283.47,2532.65 285.76,2533.76 287.76,2535.97"/>
    </edge>
    <edge id=":10836315960_15" function="internal">
        <lane id=":10836315960_15_0" index="0" allow="pedestrian delivery bicycle" speed="3.65" length="4.67" shape="277.99,2533.75 279.43,2533.88 280.16,2534.39 280.19,2535.28 279.52,2536.56"/>
    </edge>
    <edge id=":10836315964_0" function="internal">
        <lane id=":10836315964_0_0" index="0" allow="pedestrian delivery bicycle" speed="3.65" length="4.67" shape="317.17,2476.42 316.16,2475.39 315.93,2474.52 316.49,2473.82 317.83,2473.29"/>
    </edge>
    <edge id=":11064574419_0" function="internal">
        <lane id=":11064574419_0_0" index="0" disallow="tram rail_urban rail rail_electric rail_fast ship" speed="3.65" length="4.67" shape="663.37,2071.12 664.17,2069.92 664.97,2069.52 665.77,2069.93 666.57,2071.13"/>
    </edge>
    <edge id=":11066412487_0" function="internal">
        <lane id=":11066412487_0_0" index="0" disallow="tram rail_urban rail rail_electric rail_fast ship" speed="13.89" length="14.41" shape="1076.34,2200.70 1071.92,2186.99"/>
    </edge>
    <edge id=":11066412487_1" function="internal">
        <lane id=":11066412487_1_0" index="0" disallow="tram rail_urban rail rail_electric rail_fast ship" speed="7.95" length="4.16" shape="1076.34,2200.70 1075.64,2196.83 1075.69,2196.61"/>
    </edge>
    <edge id=":11066412487_2" function="internal">
        <lane id=":11066412487_2_0" index="0" disallow="tram rail_urban rail rail_electric rail_fast ship" speed="3.65" length="1.44" shape="1076.34,2200.70 1076.72,2199.31"/>
    </edge>
    <edge id=":11066412487_9" function="internal">
        <lane id=":11066412487_9_0" index="0" disallow="tram rail_urban rail rail_electric rail_fast ship" speed="7.95" length="10.15" shape="1075.69,2196.61 1076.37,2193.69 1078.52,2191.30 1082.09,2189.65"/>
    </edge>
    <edge id=":11066412487_10" function="internal">
        <lane id=":11066412487_10_0" index="0" disallow="tram rail_urban rail rail_electric rail_fast ship" speed="3.65" length="3.23" shape="1076.72,2199.31 1077.36,2198.68 1078.24,2198.81 1079.38,2199.69"/>
    </edge>
    <edge id=":11066412487_3" function="internal">
        <lane id=":11066412487_3_0" index="0" disallow="tram rail_urban rail rail_electric rail_fast ship" speed="6.44" length="9.03" shape="1083.01,2192.71 1080.75,2193.76 1079.39,2195.27 1078.94,2197.25 1079.38,2199.69"/>
    </edge>
    <edge id=":11066412487_4" function="internal">
        <lane id=":11066412487_4_0" index="0" disallow="tram rail_urban rail rail_electric rail_fast ship" speed="8.01" length="14.24" shape="1083.01,2192.71 1079.08,2193.32 1075.92,2192.57 1073.53,2190.46 1071.92,2186.99"/>
    </edge>
    <edge id=":11066412487_5" function="internal">
        <lane id=":11066412487_5_0" index="0" disallow="tram rail_urban rail rail_electric rail_fast ship" speed="3.65" length="4.67" shape="1083.01,2192.71 1081.63,2192.29 1081.02,2191.64 1081.17,2190.76 1082.09,2189.65"/>
    </edge>
    <edge id=":11066412487_6" function="internal">
        <lane id=":11066412487_6_0" index="0" disallow="tram rail_urban rail rail_electric rail_fast ship" speed="6.54" length="9.15" shape="1074.96,2185.98 1075.99,2188.21 1077.53,2189.56 1079.56,2190.04 1082.09,2189.65"/>
    </edge>
    <edge id=":11066412487_7" function="internal">
        <lane id=":11066412487_7_0" index="0" disallow="tram rail_urban rail rail_electric rail_fast ship" speed="13.89" length="14.40" shape="1074.96,2185.98 1079.38,2199.69"/>
    </edge>
    <edge id=":11066412487_8" function="internal">
        <lane id=":11066412487_8_0" index="0" disallow="tram rail_urban rail rail_electric rail_fast ship" speed="3.65" length="1.44" shape="1074.96,2185.98 1074.57,2187.38"/>
    </edge>
    <edge id=":11066412487_11" function="internal">
        <lane id=":11066412487_11_0" index="0" disallow="tram rail_urban rail rail_electric rail_fast ship" speed="3.65" length="3.23" shape="1074.57,2187.38 1073.94,2188.01 1073.05,2187.88 1071.92,2186.99"/>
    </edge>
    <edge id=":11077854999_0" function="internal">
        <lane id=":11077854999_0_0" index="0" allow="pedestrian delivery bicycle" speed="3.65" length="4.67" shape="1173.78,2297.95 1175.04,2298.64 1175.51,2299.41 1175.18,2300.24 1174.06,2301.14"/>
    </edge>
    <edge id=":11082995790_0" function="internal">
        <lane id=":11082995790_0_0" index="0" allow="pedestrian delivery bicycle" speed="5.15" length="5.10" shape="1096.43,2666.62 1096.03,2665.33 1095.29,2664.45 1094.21,2664.00 1092.78,2663.96"/>
    </edge>
    <edge id=":11082995790_1" function="internal">
        <lane id=":11082995790_1_0" index="0" disallow="tram rail_urban rail rail_electric rail_fast ship" speed="13.89" length="9.37" shape="1096.43,2666.62 1095.15,2657.34"/>
    </edge>
    <edge id=":11082995790_2" function="internal">
        <lane id=":11082995790_2_0" index="0" disallow="tram rail_urban rail rail_electric rail_fast ship" speed="13.89" length="9.29" shape="1098.33,2656.94 1099.60,2666.15"/>
    </edge>
    <edge id=":11082995790_3" function="internal">
        <lane id=":11082995790_3_0" index="0" allow="pedestrian delivery bicycle" speed="6.85" length="3.22" shape="1098.33,2656.94 1098.28,2659.76 1098.12,2660.12"/>
    </edge>
    <edge id=":11082995790_7" function="internal">
        <lane id=":11082995790_7_0" index="0" allow="pedestrian delivery bicycle" speed="6.85" length="7.03" shape="1098.12,2660.12 1097.34,2661.86 1095.51,2663.27 1092.78,2663.96"/>
    </edge>
    <edge id=":11082995790_4" function="internal">
        <lane id=":11082995790_4_0" index="0" allow="pedestrian delivery bicycle" speed="5.02" length="5.02" shape="1092.43,2660.78 1093.77,2660.44 1094.67,2659.75 1095.13,2658.72 1095.15,2657.34"/>
    </edge>
    <edge id=":11082995790_5" function="internal">
        <lane id=":11082995790_5_0" index="0" allow="pedestrian delivery bicycle" speed="6.95" length="10.11" shape="1092.43,2660.78 1095.23,2660.86 1097.35,2661.78 1098.81,2663.55 1099.60,2666.15"/>
    </edge>
    <edge id=":11082995790_6" function="internal">
        <lane id=":11082995790_6_0" index="0" allow="pedestrian delivery bicycle" speed="3.65" length="4.67" shape="1092.43,2660.78 1093.71,2661.45 1094.20,2662.20 1093.88,2663.04 1092.78,2663.96"/>
    </edge>
    <edge id=":11082995791_0" function="internal">
        <lane id=":11082995791_0_0" index="0" allow="pedestrian delivery bicycle" speed="3.65" length="4.67" shape="1071.40,2666.26 1070.12,2665.59 1069.64,2664.84 1069.95,2664.00 1071.06,2663.08"/>
    </edge>
    <edge id=":11082995792_0" function="internal">
        <lane id=":11082995792_0_0" index="0" disallow="tram rail_urban rail rail_electric rail_fast ship" speed="3.65" length="4.67" shape="1115.39,2410.72 1114.14,2410.00 1113.68,2409.23 1114.03,2408.40 1115.17,2407.52"/>
    </edge>
    <edge id=":11082995793_0" function="internal">
        <lane id=":11082995793_0_0" index="0" disallow="tram rail_urban rail rail_electric rail_fast ship" speed="6.55" length="9.08" shape="1135.38,2414.91 1134.84,2412.50 1133.64,2410.83 1131.80,2409.91 1129.31,2409.74"/>
    </edge>
    <edge id=":11082995793_1" function="internal">
        <lane id=":11082995793_1_0" index="0" disallow="tram rail_urban rail rail_electric rail_fast ship" speed="13.89" length="14.40" shape="1135.38,2414.91 1134.24,2400.56"/>
    </edge>
    <edge id=":11082995793_2" function="internal">
        <lane id=":11082995793_2_0" index="0" disallow="tram rail_urban rail rail_electric rail_fast ship" speed="3.65" length="1.44" shape="1135.38,2414.91 1136.09,2413.65"/>
    </edge>
    <edge id=":11082995793_9" function="internal">
        <lane id=":11082995793_9_0" index="0" disallow="tram rail_urban rail rail_electric rail_fast ship" speed="3.65" length="3.23" shape="1136.09,2413.65 1136.85,2413.19 1137.68,2413.52 1138.57,2414.66"/>
    </edge>
    <edge id=":11082995793_3" function="internal">
        <lane id=":11082995793_3_0" index="0" disallow="tram rail_urban rail rail_electric rail_fast ship" speed="13.89" length="14.40" shape="1137.43,2400.30 1138.57,2414.66"/>
    </edge>
    <edge id=":11082995793_4" function="internal">
        <lane id=":11082995793_4_0" index="0" disallow="tram rail_urban rail rail_electric rail_fast ship" speed="7.98" length="4.07" shape="1137.43,2400.30 1137.18,2404.20 1137.11,2404.35"/>
    </edge>
    <edge id=":11082995793_5" function="internal">
        <lane id=":11082995793_5_0" index="0" disallow="tram rail_urban rail rail_electric rail_fast ship" speed="3.65" length="1.44" shape="1137.43,2400.30 1136.73,2401.56"/>
    </edge>
    <edge id=":11082995793_10" function="internal">
        <lane id=":11082995793_10_0" index="0" disallow="tram rail_urban rail rail_electric rail_fast ship" speed="7.98" length="10.16" shape="1137.11,2404.35 1135.75,2407.07 1133.12,2408.92 1129.31,2409.74"/>
    </edge>
    <edge id=":11082995793_11" function="internal">
        <lane id=":11082995793_11_0" index="0" disallow="tram rail_urban rail rail_electric rail_fast ship" speed="3.65" length="3.23" shape="1136.73,2401.56 1135.96,2402.02 1135.13,2401.69 1134.24,2400.56"/>
    </edge>
    <edge id=":11082995793_6" function="internal">
        <lane id=":11082995793_6_0" index="0" disallow="tram rail_urban rail rail_electric rail_fast ship" speed="6.49" length="9.03" shape="1129.08,2406.55 1131.51,2406.02 1133.17,2404.85 1134.08,2403.03 1134.24,2400.56"/>
    </edge>
    <edge id=":11082995793_7" function="internal">
        <lane id=":11082995793_7_0" index="0" disallow="tram rail_urban rail rail_electric rail_fast ship" speed="8.03" length="14.21" shape="1129.08,2406.55 1132.97,2406.82 1135.85,2408.27 1137.72,2410.88 1138.57,2414.66"/>
    </edge>
    <edge id=":11082995793_8" function="internal">
        <lane id=":11082995793_8_0" index="0" disallow="tram rail_urban rail rail_electric rail_fast ship" speed="3.65" length="4.67" shape="1129.08,2406.55 1130.34,2407.26 1130.79,2408.03 1130.45,2408.86 1129.31,2409.74"/>
    </edge>
    <edge id=":11160630749_0" function="internal">
        <lane id=":11160630749_0_0" index="0" disallow="tram rail_urban rail rail_electric rail_fast ship" speed="3.65" length="4.67" shape="542.16,2433.43 543.60,2433.51 544.35,2434.00 544.41,2434.89 543.77,2436.19"/>
    </edge>
    <edge id=":11192733139_0" function="internal">
        <lane id=":11192733139_0_0" index="0" disallow="tram rail_urban rail rail_electric rail_fast ship" speed="13.89" length="9.90" shape="713.22,1883.37 712.38,1880.56 711.71,1878.64 710.77,1876.86 709.11,1874.45"/>
    </edge>
    <edge id=":11192733139_1" function="internal">
        <lane id=":11192733139_1_0" index="0" disallow="tram rail_urban rail rail_electric rail_fast ship" speed="14.67" length="13.22" shape="713.22,1883.37 713.01,1880.11 714.09,1877.23 715.73,1874.36 717.20,1871.11"/>
    </edge>
    <edge id=":11192733139_2" function="internal">