<?xml version="1.0" encoding="UTF-8"?>

<!-- generated on 2024-07-13 17:02:19 by Eclipse SUMO polyconvert Version 1.15.0
<configuration xmlns:xsi="http://www.w3.org/2001/XMLSchema-instance" xsi:noNamespaceSchemaLocation="http://sumo.dlr.de/xsd/polyconvertConfiguration.xsd">

    <input>
        <net-file value="hyderabad.net.xml"/>
        <osm-files value="hyderabad.osm"/>
        <type-file value="osmPolyconvert.typ.xml"/>
    </input>

    <output>
        <output-file value="hyderabad.poly.xml"/>
    </output>

</configuration>
-->

<additional xmlns:xsi="http://www.w3.org/2001/XMLSchema-instance" xsi:noNamespaceSchemaLocation="http://sumo.dlr.de/xsd/additional_file.xsd">
    <location netOffset="-233389.86,-1919916.70" convBoundary="-664.90,-0.00,6022.55,3386.33" origBoundary="78.484633,17.349807,78.547888,17.379926" projParameter="+proj=utm +zone=44 +ellps=WGS84 +datum=WGS84 +units=m +no_defs"/>

    <poly id="1102359066" type="building" color="255,230,230" fill="1" layer="-1.00" shape="999.476571,2414.977921 1010.835826,2402.959080 1021.610793,2390.981083 1032.678655,2390.870066 1032.810249,2398.520138 1026.572859,2398.856115 1026.171737,2419.480196 1019.509958,2419.888147 1019.428721,2413.654826 999.476571,2414.977921"/>
    <poly id="1164997097" type="building" color="255,230,230" fill="1" layer="-1.00" shape="890.279083,1881.263177 895.349538,1890.100180 909.567976,1882.041589 904.497526,1873.204583 890.279083,1881.263177"/>
    <poly id="1164997098" type="building" color="255,230,230" fill="1" layer="-1.00" shape="502.669080,1995.039373 513.224927,1993.971393 511.945412,1981.486076 501.389558,1982.554055 502.669080,1995.039373"/>
    <poly id="1164997099" type="building" color="255,230,230" fill="1" layer="-1.00" shape="425.412879,2089.254100 425.725552,2100.168530 439.182574,2099.782396 438.870053,2088.879038 425.412879,2089.254100"/>
    <poly id="1164997100" type="building" color="255,230,230" fill="1" layer="-1.00" shape="361.188639,2291.310393 374.188308,2290.110729 372.641825,2273.476313 359.642145,2274.675976 361.188639,2291.310393"/>
    <poly id="1164997101" type="building" color="255,230,230" fill="1" layer="-1.00" shape="336.736591,2264.012410 357.825951,2262.629533 357.269062,2254.187690 336.179693,2255.570566 336.736591,2264.012410"/>
    <poly id="1164997102" type="building" color="255,230,230" fill="1" layer="-1.00" shape="302.282461,2232.958320 303.212641,2243.111689 331.358051,2240.562456 330.438661,2230.420021 302.282461,2232.958320"/>
    <poly id="1164997107" type="building" color="255,230,230" fill="1" layer="-1.00" shape="270.016993,2440.987007 270.739980,2449.116624 298.019248,2447.032639 297.665049,2438.643512 270.016993,2440.987007"/>
    <poly id="1164997109" type="building" color="255,230,230" fill="1" layer="-1.00" shape="221.120347,2403.234081 283.242722,2404.204975 283.473307,2390.116396 221.340402,2389.156706 221.120347,2403.234081"/>
    <poly id="1164997120" type="building" color="255,230,230" fill="1" layer="-1.00" shape="581.701535,1851.912244 589.720812,1853.656873 593.686771,1835.699227 585.667487,1833.954595 581.701535,1851.912244"/>
    <poly id="238281774" type="landuse" color="194,194,130" fill="1" layer="-3.00" shape="939.090704,2030.008492 982.754115,2040.778700 989.439535,2068.286735 1013.955698,2169.112580 988.191180,2179.746691 967.278012,2205.255760 927.085325,2214.361624 894.950330,2221.646126 890.213129,2215.528870 823.813882,2199.729024 818.994607,2197.920448 791.073524,2162.229218 795.787793,2126.632829 829.247492,2070.064865 843.705285,2057.540459 866.648354,2037.652291 939.090704,2030.008492"/>
    <poly id="238281779" type="amenity" color="237,199,199" fill="1" layer="-1.00" shape="1074.155066,1691.016515 1106.887710,1856.925027 1112.860378,2037.090378 989.439535,2068.286735 982.754115,2040.778700 939.090704,2030.008492 866.648354,2037.652291 742.091254,2054.281188 724.738178,1875.814188 1074.155066,1691.016515"/>
    <poly id="238281779#1" type="historic" color="128,255,128" fill="1" layer="-1.00" shape="1074.155066,1691.016515 1106.887710,1856.925027 1112.860378,2037.090378 989.439535,2068.286735 982.754115,2040.778700 939.090704,2030.008492 866.648354,2037.652291 742.091254,2054.281188 724.738178,1875.814188 1074.155066,1691.016515"/>
    <poly id="281538129" type="tourism" color="207,245,201" fill="1" layer="-2.00" shape="482.357032,2756.245108 404.096683,2786.357671 383.341234,2724.550520 460.891617,2690.538221 482.357032,2756.245108"/>
    <poly id="281541605" type="tourism" color="207,245,201" fill="1" layer="-2.00" shape="331.240830,2587.221596 368.249542,2648.628104 326.387610,2670.691046 288.290355,2613.872207 331.240830,2587.221596"/>
    <poly id="281541606" type="tourism" color="207,245,201" fill="1" layer="-2.00" shape="393.150908,2545.130476 423.532666,2610.432946 403.864961,2622.937227 365.730836,2558.400480 393.150908,2545.130476"/>
    <poly id="281543243" type="amenity" color="237,199,199" fill="1" layer="-1.00" shape="863.392714,2631.987907 733.257493,2642.145699 745.889274,2608.693869 751.059033,2568.097325 770.003317,2566.144848 798.899771,2519.314478 894.640619,2555.095660 893.543240,2559.007845 891.628632,2562.221983 873.818156,2554.902103 845.974759,2622.149251 864.304111,2629.307304 863.945729,2630.363962 863.392714,2631.987907"/>
    <poly id="331180250" type="tourism" color="207,245,201" fill="1" layer="-2.00" shape="413.527276,2654.425983 445.789095,2640.627693 388.867000,2600.576346 413.527276,2654.425983"/>
    <poly id="331180265" type="tourism" color="207,245,201" fill="1" layer="-2.00" shape="447.560447,2818.556474 504.852274,2803.113525 474.369742,2733.316459 408.955632,2755.398978 447.560447,2818.556474"/>
    <poly id="331180270" type="tourism" color="207,245,201" fill="1" layer="-2.00" shape="285.297616,2611.065417 334.595651,2577.864896 378.123764,2644.246843 380.678280,2646.882193 323.579188,2673.850491 306.445285,2673.565031 302.167438,2667.619071 316.554670,2650.566012 285.297616,2611.065417"/>
    <poly id="340830479" type="building" color="255,230,230" fill="1" layer="-1.00" shape="929.990286,2682.677718 939.387951,2681.702525 936.917424,2667.560646 928.101211,2669.093007 929.990286,2682.677718"/>
    <poly id="357376213" type="building" color="255,230,230" fill="1" layer="-1.00" shape="1145.605236,2723.928894 1157.972053,2723.147659 1157.358675,2713.610301 1145.002483,2714.391397 1145.605236,2723.928894"/>
    <poly id="357376276" type="building" color="255,230,230" fill="1" layer="-1.00" shape="1103.900679,2739.332923 1119.692081,2738.606700 1119.024830,2724.120190 1103.233272,2724.835340 1103.900679,2739.332923"/>
    <poly id="357376313" type="building" color="255,230,230" fill="1" layer="-1.00" shape="1152.713028,2740.623704 1159.161104,2740.960489 1160.018797,2724.361225 1153.570860,2724.035510 1152.713028,2740.623704"/>
    <poly id="357376394" type="building" color="255,230,230" fill="1" layer="-1.00" shape="1132.401057,2739.603822 1143.936067,2739.453531 1143.775805,2727.152969 1132.240788,2727.303259 1132.401057,2739.603822"/>
    <poly id="357376467" type="building" color="255,230,230" fill="1" layer="-1.00" shape="1160.303274,2741.299961 1172.900880,2741.910986 1173.733138,2724.990924 1161.146153,2724.379758 1160.303274,2741.299961"/>
    <poly id="357376511" type="building" color="255,230,230" fill="1" layer="-1.00" shape="1161.202729,2723.825347 1177.499066,2721.863435 1175.986912,2709.447605 1159.690565,2711.409516 1161.202729,2723.825347"/>
    <poly id="357376547" type="building" color="255,230,230" fill="1" layer="-1.00" shape="1121.867468,2738.268297 1130.606436,2738.154431 1130.288782,2713.774736 1121.549804,2713.888601 1121.867468,2738.268297"/>
    <poly id="357376555" type="building" color="255,230,230" fill="1" layer="-1.00" shape="1144.950084,2739.750377 1152.237893,2740.065146 1152.878032,2725.539458 1145.600706,2725.213478 1144.950084,2739.750377"/>
    <poly id="357609711" type="building" color="255,230,230" fill="1" layer="-1.00" shape="688.327223,2737.100622 703.812456,2735.724734 703.463484,2731.798185 709.273069,2731.279428 708.975871,2728.060910 713.542886,2727.658031 712.112365,2711.741894 700.684259,2712.754767 700.334997,2708.806076 685.901239,2710.090726 688.327223,2737.100622"/>
    <poly id="357609717" type="building" color="255,230,230" fill="1" layer="-1.00" shape="715.163001,2639.137266 719.149583,2638.254731 718.528158,2635.450164 720.447245,2635.026475 719.702085,2631.703067 722.787452,2631.020543 722.053068,2627.708068 723.389016,2627.413797 722.350102,2622.765400 726.516988,2621.847293 725.636305,2617.916610 711.131939,2621.128947 715.163001,2639.137266"/>
    <poly id="357609721" type="building" color="255,230,230" fill="1" layer="-1.00" shape="366.521234,2712.478652 375.361134,2706.250543 368.818815,2697.078537 359.979057,2703.317720 366.521234,2712.478652"/>
    <poly id="357609729" type="building" color="255,230,230" fill="1" layer="-1.00" shape="723.852196,2724.024264 736.231256,2723.364420 735.418878,2708.370394 723.050440,2709.030099 723.852196,2724.024264"/>
    <poly id="357609733" type="building" color="255,230,230" fill="1" layer="-1.00" shape="382.811521,2544.025318 394.273293,2537.441843 390.379127,2530.748925 378.917351,2537.332402 382.811521,2544.025318"/>
    <poly id="357609735" type="building" color="255,230,230" fill="1" layer="-1.00" shape="357.442740,2741.133833 367.673383,2733.924146 364.228940,2729.096790 353.998295,2736.306479 357.442740,2741.133833"/>
    <poly id="357609747" type="building" color="255,230,230" fill="1" layer="-1.00" shape="438.431922,2600.006361 447.943119,2595.508073 443.975142,2587.232596 434.474573,2591.730746 438.431922,2600.006361"/>
    <poly id="357609754" type="building" color="255,230,230" fill="1" layer="-1.00" shape="415.257887,2515.851127 426.371447,2509.471546 419.746878,2498.074811 408.633457,2504.465466 415.257887,2515.851127"/>
    <poly id="357609758" type="building" color="255,230,230" fill="1" layer="-1.00" shape="396.647944,2649.209389 407.064518,2644.832130 402.983778,2635.251454 392.567344,2639.639785 396.647944,2649.209389"/>
    <poly id="357609762" type="building" color="255,230,230" fill="1" layer="-1.00" shape="641.243341,2701.250034 647.709062,2711.895889 658.006399,2705.715333 651.540683,2695.069475 641.243341,2701.250034"/>
    <poly id="357609765" type="building" color="255,230,230" fill="1" layer="-1.00" shape="805.247210,2696.153284 815.728951,2696.769550 816.567590,2682.805977 806.075065,2682.178777 805.247210,2696.153284"/>
    <poly id="357609775" type="building" color="255,230,230" fill="1" layer="-1.00" shape="744.978695,2666.852821 750.904522,2666.277194 750.058132,2657.639815 744.132303,2658.215443 744.978695,2666.852821"/>
    <poly id="357609779" type="building" color="255,230,230" fill="1" layer="-1.00" shape="409.909899,2556.594134 419.406071,2550.944382 414.156874,2541.456480 404.373068,2547.065697 409.909899,2556.594134"/>
    <poly id="357609782" type="building" color="255,230,230" fill="1" layer="-1.00" shape="309.516600,2572.545115 321.347691,2565.746369 316.485018,2557.360791 304.653923,2564.159539 309.516600,2572.545115"/>
    <poly id="357609794" type="building" color="255,230,230" fill="1" layer="-1.00" shape="282.417150,2697.388249 291.606929,2690.269644 272.391428,2665.771395 263.201497,2672.878937 282.417150,2697.388249"/>
    <poly id="357609802" type="building" color="255,230,230" fill="1" layer="-1.00" shape="744.408747,2656.584028 750.580977,2656.149141 749.968624,2647.519783 743.796391,2647.954669 744.408747,2656.584028"/>
    <poly id="357609812" type="building" color="255,230,230" fill="1" layer="-1.00" shape="689.191174,2705.529790 703.849495,2704.341873 702.887485,2692.550047 688.218525,2693.738102 689.191174,2705.529790"/>
    <poly id="357609821" type="building" color="255,230,230" fill="1" layer="-1.00" shape="471.338316,2646.949176 482.262463,2642.354932 477.578377,2631.353638 466.654369,2635.958956 471.338316,2646.949176"/>
    <poly id="357609829" type="building" color="255,230,230" fill="1" layer="-1.00" shape="355.098294,2727.721173 358.596237,2725.250355 352.108084,2716.155161 348.610140,2718.625979 355.098294,2727.721173"/>
    <poly id="357609836" type="building" color="255,230,230" fill="1" layer="-1.00" shape="752.663093,2663.330839 762.097287,2662.709440 761.712417,2656.845494 752.267589,2657.467032 752.663093,2663.330839"/>
    <poly id="357609838" type="building" color="255,230,230" fill="1" layer="-1.00" shape="375.780775,2548.745919 381.912689,2545.221931 377.713894,2538.001464 371.581978,2541.525453 375.780775,2548.745919"/>
    <poly id="357609844" type="building" color="255,230,230" fill="1" layer="-1.00" shape="293.884661,2581.420004 306.644658,2574.099725 301.695336,2565.593473 288.946111,2572.924688 293.884661,2581.420004"/>
    <poly id="357609847" type="building" color="255,230,230" fill="1" layer="-1.00" shape="427.585160,2645.527452 437.483403,2641.356305 434.225347,2633.702749 424.316469,2637.874035 427.585160,2645.527452"/>
    <poly id="357609849" type="building" color="255,230,230" fill="1" layer="-1.00" shape="292.140347,2645.658372 301.582203,2639.112306 298.981744,2635.403429 289.529255,2641.949636 292.140347,2645.658372"/>
    <poly id="357609854" type="building" color="255,230,230" fill="1" layer="-1.00" shape="756.046683,2698.544789 769.280023,2698.161733 768.819172,2682.399050 755.575190,2682.782244 756.046683,2698.544789"/>
    <poly id="357609861" type="building" color="255,230,230" fill="1" layer="-1.00" shape="790.127423,2711.687356 803.242419,2712.014570 803.423798,2704.725828 790.308797,2704.398613 790.127423,2711.687356"/>
    <poly id="357609869" type="building" color="255,230,230" fill="1" layer="-1.00" shape="391.276471,2665.358364 401.174844,2661.198269 396.896373,2651.132941 386.987509,2655.304248 391.276471,2665.358364"/>
    <poly id="357609873" type="building" color="255,230,230" fill="1" layer="-1.00" shape="652.531706,2727.003678 672.248549,2723.966870 670.205318,2710.804964 650.488317,2713.830700 652.531706,2727.003678"/>
    <poly id="357609877" type="building" color="255,230,230" fill="1" layer="-1.00" shape="705.855794,2744.822654 715.941211,2744.403126 715.477786,2733.335647 705.392364,2733.755174 705.855794,2744.822654"/>
    <poly id="357609885" type="building" color="255,230,230" fill="1" layer="-1.00" shape="278.705476,2627.374344 288.147338,2620.828272 281.429642,2611.259929 271.998408,2617.805864 278.705476,2627.374344"/>
    <poly id="357609889" type="building" color="255,230,230" fill="1" layer="-1.00" shape="361.742854,2546.969312 369.953840,2542.244359 365.417796,2534.441402 357.206807,2539.166357 361.742854,2546.969312"/>
    <poly id="357609893" type="building" color="255,230,230" fill="1" layer="-1.00" shape="772.871556,2702.045975 787.598864,2701.255866 786.944781,2689.426806 772.228241,2690.227847 772.871556,2702.045975"/>
    <poly id="357609902" type="building" color="255,230,230" fill="1" layer="-1.00" shape="760.489455,2706.548347 770.723727,2706.126907 770.504974,2700.770176 760.270699,2701.191616 760.489455,2706.548347"/>
    <poly id="357609906" type="building" color="255,230,230" fill="1" layer="-1.00" shape="384.798526,2533.335528 390.856605,2529.856803 383.470600,2517.152272 377.412517,2520.630999 384.798526,2533.335528"/>
    <poly id="357609912" type="building" color="255,230,230" fill="1" layer="-1.00" shape="305.016443,2589.457881 312.710364,2585.038644 307.488893,2576.048711 299.795113,2580.479022 305.016443,2589.457881"/>
    <poly id="357609916" type="building" color="255,230,230" fill="1" layer="-1.00" shape="397.135121,2675.104061 405.827871,2671.446955 401.900892,2662.240771 393.208139,2665.897878 397.135121,2675.104061"/>
    <poly id="357609918" type="building" color="255,230,230" fill="1" layer="-1.00" shape="629.877819,2740.454747 644.521376,2738.137476 642.276356,2724.180909 627.632933,2726.509252 629.877819,2740.454747"/>
    <poly id="357609921" type="building" color="255,230,230" fill="1" layer="-1.00" shape="288.626084,2641.186291 298.352531,2634.448253 294.040320,2628.314493 284.324502,2635.052394 288.626084,2641.186291"/>
    <poly id="357609925" type="building" color="255,230,230" fill="1" layer="-1.00" shape="463.434082,2626.311665 474.220755,2621.774581 470.348551,2612.689481 459.561874,2617.226566 463.434082,2626.311665"/>
    <poly id="357609930" type="building" color="255,230,230" fill="1" layer="-1.00" shape="788.574960,2699.460295 801.722178,2698.181429 800.839294,2689.190175 787.692069,2690.469041 788.574960,2699.460295"/>
    <poly id="357609934" type="building" color="255,230,230" fill="1" layer="-1.00" shape="382.793841,2619.990114 391.894948,2615.032065 388.322629,2608.556415 379.221519,2613.514465 382.793841,2619.990114"/>
    <poly id="357609937" type="building" color="255,230,230" fill="1" layer="-1.00" shape="662.411062,2710.795960 671.537174,2707.753433 665.143530,2688.779337 656.027896,2691.810655 662.411062,2710.795960"/>
    <poly id="357609946" type="building" color="255,230,230" fill="1" layer="-1.00" shape="449.335263,2595.445595 460.692869,2590.657431 457.478645,2583.102960 446.110258,2587.880193 449.335263,2595.445595"/>
    <poly id="357609949" type="building" color="255,230,230" fill="1" layer="-1.00" shape="830.893582,2678.964846 840.350906,2678.487137 839.736637,2666.447163 830.279307,2666.924872 830.893582,2678.964846"/>
    <poly id="357609954" type="building" color="255,230,230" fill="1" layer="-1.00" shape="291.095821,2597.468820 294.114285,2595.735115 288.653416,2586.327520 285.624464,2588.072436 291.095821,2597.468820"/>
    <poly id="357609962" type="building" color="255,230,230" fill="1" layer="-1.00" shape="358.556571,2583.874803 366.857293,2578.694659 361.602000,2570.369570 353.290645,2575.549856 358.556571,2583.874803"/>
    <poly id="357609970" type="building" color="255,230,230" fill="1" layer="-1.00" shape="787.475945,2656.786212 802.033848,2655.234255 800.641963,2642.274248 787.107933,2643.248097 787.475945,2656.786212"/>
    <poly id="357609975" type="building" color="255,230,230" fill="1" layer="-1.00" shape="319.357194,2580.234446 328.877058,2574.772587 323.753447,2565.947476 314.233724,2571.420408 319.357194,2580.234446"/>
    <poly id="357609979" type="building" color="255,230,230" fill="1" layer="-1.00" shape="379.669350,2681.156947 391.284074,2676.520405 386.119499,2663.742562 374.504624,2668.368034 379.669350,2681.156947"/>
    <poly id="357609982" type="building" color="255,230,230" fill="1" layer="-1.00" shape="287.841367,2664.129891 298.073481,2657.030888 293.349320,2650.293466 283.106573,2657.392610 287.841367,2664.129891"/>
    <poly id="357609992" type="building" color="255,230,230" fill="1" layer="-1.00" shape="459.051060,2616.380575 470.863349,2611.398226 467.989407,2604.658753 456.176970,2609.630031 459.051060,2616.380575"/>
    <poly id="357610004" type="building" color="255,230,230" fill="1" layer="-1.00" shape="332.681815,2569.739768 339.531306,2565.796667 334.690916,2557.488310 327.841278,2561.420340 332.681815,2569.739768"/>
    <poly id="357610007" type="building" color="255,230,230" fill="1" layer="-1.00" shape="354.626861,2600.503261 364.196624,2593.977705 358.246236,2585.351641 348.676615,2591.888270 354.626861,2600.503261"/>
    <poly id="357610010" type="building" color="255,230,230" fill="1" layer="-1.00" shape="461.800817,2651.060226 470.493585,2647.403151 465.908213,2636.633114 457.215440,2640.290190 461.800817,2651.060226"/>
    <poly id="357610014" type="building" color="255,230,230" fill="1" layer="-1.00" shape="807.407376,2679.160473 822.541201,2679.372780 822.666288,2670.213349 807.532600,2670.012113 807.407376,2679.160473"/>
    <poly id="357610023" type="building" color="255,230,230" fill="1" layer="-1.00" shape="300.451870,2681.173383 305.366615,2678.086067 299.709992,2669.157193 294.784614,2672.244649 300.451870,2681.173383"/>
    <poly id="357610035" type="building" color="255,230,230" fill="1" layer="-1.00" shape="789.991275,2667.018551 802.729089,2666.143676 802.086251,2656.806011 789.348431,2657.680886 789.991275,2667.018551"/>
    <poly id="357610039" type="building" color="255,230,230" fill="1" layer="-1.00" shape="417.281839,2652.062561 427.032105,2647.959784 423.050241,2638.621431 413.299971,2642.724210 417.281839,2652.062561"/>
    <poly id="357610058" type="building" color="255,230,230" fill="1" layer="-1.00" shape="299.490783,2655.639243 307.994830,2649.747702 301.266085,2640.146278 292.751549,2646.049032 299.490783,2655.639243"/>
    <poly id="357610062" type="building" color="255,230,230" fill="1" layer="-1.00" shape="731.700457,2706.170990 736.458842,2705.765619 736.509521,2693.351537 731.452731,2693.705433 731.700457,2706.170990"/>
    <poly id="357610074" type="building" color="255,230,230" fill="1" layer="-1.00" shape="327.792022,2560.092157 334.599424,2556.182826 330.585688,2549.292155 323.788772,2553.190277 327.792022,2560.092157"/>
    <poly id="357610078" type="building" color="255,230,230" fill="1" layer="-1.00" shape="382.273935,2644.491604 392.156695,2639.135767 377.124660,2611.725799 367.241888,2617.081642 382.273935,2644.491604"/>
    <poly id="357610089" type="building" color="255,230,230" fill="1" layer="-1.00" shape="275.872919,2645.771331 285.852055,2638.841733 278.950154,2629.010033 268.970870,2635.928563 275.872919,2645.771331"/>
    <poly id="357610093" type="building" color="255,230,230" fill="1" layer="-1.00" shape="435.703583,2660.581087 446.966043,2655.838447 441.854297,2643.846126 430.591830,2648.588768 435.703583,2660.581087"/>
    <poly id="357610108" type="building" color="255,230,230" fill="1" layer="-1.00" shape="386.266957,2654.682469 395.721128,2650.705353 391.750025,2641.377937 382.295850,2645.355055 386.266957,2654.682469"/>
    <poly id="357610120" type="building" color="255,230,230" fill="1" layer="-1.00" shape="773.366840,2688.662699 786.713954,2688.034554 786.315398,2679.490995 772.957648,2680.119279 773.366840,2688.662699"/>
    <poly id="357610132" type="building" color="255,230,230" fill="1" layer="-1.00" shape="387.629498,2628.752556 396.808638,2624.070328 392.597710,2615.919841 383.429053,2620.590860 387.629498,2628.752556"/>
    <poly id="357610140" type="building" color="255,230,230" fill="1" layer="-1.00" shape="454.468153,2654.644171 461.098778,2651.855617 456.513546,2641.096654 449.893549,2643.885070 454.468153,2654.644171"/>
    <poly id="357610144" type="building" color="255,230,230" fill="1" layer="-1.00" shape="817.067006,2695.821920 834.534869,2696.446728 834.999799,2683.994030 817.521150,2683.358288 817.067006,2695.821920"/>
    <poly id="357610158" type="building" color="255,230,230" fill="1" layer="-1.00" shape="366.224705,2594.571325 374.892607,2589.009885 368.544300,2579.226294 359.876540,2584.798808 366.224705,2594.571325"/>
    <poly id="357610171" type="building" color="255,230,230" fill="1" layer="-1.00" shape="274.613805,2590.929369 286.233838,2584.255167 281.578215,2576.254464 269.958034,2582.917596 274.613805,2590.929369"/>
    <poly id="357610176" type="building" color="255,230,230" fill="1" layer="-1.00" shape="465.024795,2634.939327 477.482267,2629.693862 474.597408,2622.932384 462.139932,2628.177850 465.024795,2634.939327"/>
    <poly id="357610185" type="building" color="255,230,230" fill="1" layer="-1.00" shape="351.637267,2575.150665 361.512969,2569.252305 357.056989,2561.880173 347.191915,2567.778395 351.637267,2575.150665"/>
    <poly id="357610188" type="building" color="255,230,230" fill="1" layer="-1.00" shape="447.822971,2633.525129 461.380327,2627.822345 458.177172,2620.300951 444.619811,2626.003737 447.822971,2633.525129"/>
    <poly id="357610204" type="building" color="255,230,230" fill="1" layer="-1.00" shape="365.794415,2615.350934 374.623660,2609.931340 365.890647,2595.860222 357.050766,2601.279958 365.794415,2615.350934"/>
    <poly id="357610209" type="building" color="255,230,230" fill="1" layer="-1.00" shape="725.498515,2669.288490 730.278316,2668.893914 728.654186,2649.547512 723.885012,2649.941949 725.498515,2669.288490"/>
    <poly id="357610213" type="building" color="255,230,230" fill="1" layer="-1.00" shape="412.220698,2642.317515 422.436293,2638.020406 420.034097,2632.393203 409.829131,2636.690174 412.220698,2642.317515"/>
    <poly id="357610224" type="building" color="255,230,230" fill="1" layer="-1.00" shape="816.816521,2715.746447 827.341588,2715.609153 827.177671,2703.042849 816.652598,2703.180142 816.816521,2715.746447"/>
    <poly id="357610230" type="building" color="255,230,230" fill="1" layer="-1.00" shape="283.449462,2634.000769 293.239122,2627.217608 289.154366,2621.402009 279.375480,2628.196104 283.449462,2634.000769"/>
    <poly id="357610234" type="building" color="255,230,230" fill="1" layer="-1.00" shape="739.544829,2733.652781 757.924601,2733.269003 757.552513,2715.345823 739.172725,2715.729600 739.544829,2733.652781"/>
    <poly id="357610241" type="building" color="255,230,230" fill="1" layer="-1.00" shape="419.606476,2552.447766 426.474710,2552.380195 426.376950,2541.640130 419.508712,2541.707702 419.606476,2552.447766"/>
    <poly id="357610251" type="building" color="255,230,230" fill="1" layer="-1.00" shape="349.602000,2563.428218 359.976665,2557.467970 356.430509,2551.368482 346.055697,2557.317660 349.602000,2563.428218"/>
    <poly id="357610255" type="building" color="255,230,230" fill="1" layer="-1.00" shape="419.201808,2630.543720 432.039982,2625.138223 426.697584,2612.584165 413.848771,2617.989804 419.201808,2630.543720"/>
    <poly id="357610269" type="building" color="255,230,230" fill="1" layer="-1.00" shape="491.064568,2756.164598 502.257257,2752.596688 495.574968,2731.887846 484.382267,2735.455758 491.064568,2756.164598"/>
    <poly id="357610272" type="building" color="255,230,230" fill="1" layer="-1.00" shape="716.379234,2663.892873 724.460639,2663.089786 723.154333,2650.172954 715.062292,2650.976180 716.379234,2663.892873"/>
    <poly id="357610276" type="building" color="255,230,230" fill="1" layer="-1.00" shape="424.179779,2637.178187 434.310761,2632.915411 431.634104,2626.627380 421.503119,2630.890157 424.179779,2637.178187"/>
    <poly id="357610285" type="building" color="255,230,230" fill="1" layer="-1.00" shape="437.750184,2611.310285 453.655157,2604.613433 449.892583,2595.781595 433.987603,2602.478449 437.750184,2611.310285"/>
    <poly id="357610289" type="building" color="255,230,230" fill="1" layer="-1.00" shape="809.449960,2713.472810 814.919690,2713.800105 815.455263,2705.133627 809.985531,2704.806332 809.449960,2713.472810"/>
    <poly id="357610306" type="building" color="255,230,230" fill="1" layer="-1.00" shape="348.268639,2590.775172 358.065282,2584.523489 352.573780,2576.024312 342.776988,2582.264926 348.268639,2590.775172"/>
    <poly id="357610309" type="building" color="255,230,230" fill="1" layer="-1.00" shape="273.847722,2608.789961 281.246120,2604.540676 274.806272,2593.451625 267.397384,2597.712122 273.847722,2608.789961"/>
    <poly id="357610313" type="building" color="255,230,230" fill="1" layer="-1.00" shape="803.502237,2665.092679 812.680119,2664.386059 810.892474,2641.465048 801.714581,2642.171668 803.502237,2665.092679"/>
    <poly id="357610327" type="building" color="255,230,230" fill="1" layer="-1.00" shape="350.535171,2677.971948 357.796142,2674.599296 353.333663,2665.101129 346.083320,2668.473644 350.535171,2677.971948"/>
    <poly id="357610346" type="building" color="255,230,230" fill="1" layer="-1.00" shape="442.916909,2620.998590 456.717350,2615.181893 453.262003,2607.076896 439.461412,2612.882523 442.916909,2620.998590"/>
    <poly id="357610350" type="building" color="255,230,230" fill="1" layer="-1.00" shape="720.950682,2686.644682 740.207067,2684.987073 739.131687,2672.654125 719.875291,2674.311734 720.950682,2686.644682"/>
    <poly id="357610355" type="building" color="255,230,230" fill="1" layer="-1.00" shape="353.844103,2735.898772 362.683989,2729.670656 359.846188,2725.699111 351.016932,2731.927089 353.844103,2735.898772"/>
    <poly id="357610359" type="building" color="255,230,230" fill="1" layer="-1.00" shape="761.504552,2707.742116 762.083911,2717.102758 773.888011,2716.383998 773.308657,2707.023357 761.504552,2707.742116"/>
    <poly id="357610369" type="building" color="255,230,230" fill="1" layer="-1.00" shape="422.862757,2664.967854 434.241435,2660.168319 429.667110,2649.431364 418.288425,2654.230901 422.862757,2664.967854"/>
    <poly id="357610379" type="building" color="255,230,230" fill="1" layer="-1.00" shape="720.445766,2693.583298 735.423469,2692.424459 735.015075,2687.203084 720.037368,2688.361923 720.445766,2693.583298"/>
    <poly id="357610391" type="building" color="255,230,230" fill="1" layer="-1.00" shape="745.254565,2691.255268 754.567670,2691.133752 754.474494,2683.992546 745.161386,2684.114061 745.254565,2691.255268"/>
    <poly id="357610403" type="building" color="255,230,230" fill="1" layer="-1.00" shape="377.122995,2610.784569 386.079098,2605.307955 378.420886,2592.928118 369.464779,2598.404735 377.122995,2610.784569"/>
    <poly id="357610407" type="building" color="255,230,230" fill="1" layer="-1.00" shape="359.078784,2674.294623 374.312316,2667.484663 369.746494,2657.400946 354.513099,2664.221980 359.078784,2674.294623"/>
    <poly id="357610418" type="building" color="255,230,230" fill="1" layer="-1.00" shape="402.446060,2660.018938 411.678128,2656.133320 407.125775,2645.451449 397.893703,2649.337069 402.446060,2660.018938"/>
    <poly id="357610425" type="building" color="255,230,230" fill="1" layer="-1.00" shape="787.513966,2689.042881 800.209963,2688.223915 799.624468,2679.206635 786.928465,2680.025600 787.513966,2689.042881"/>
    <poly id="357610431" type="building" color="255,230,230" fill="1" layer="-1.00" shape="367.693021,2687.414961 378.941786,2682.439912 372.939851,2669.052893 361.691224,2674.039016 367.693021,2687.414961"/>