<?xml version="1.0" encoding="UTF-8"?>

<!-- generated on 2024-07-13 17:09:06.463525 by randomTrips.py v1_20_0+1224-eecd3762986
<configuration>
    <net-file value="hyderabad.net.xml"/>
    <route-file value="simulation.rou.xml"/>
    <length value="True"/>
    <end value="50.0"/>
</configuration>
-->

<!-- generated on 2024-07-13 17:09:06 by Eclipse SUMO duarouter Version 1.15.0
<configuration xmlns:xsi="http://www.w3.org/2001/XMLSchema-instance" xsi:noNamespaceSchemaLocation="http://sumo.dlr.de/xsd/duarouterConfiguration.xsd">

    <input>
        <net-file value="hyderabad.net.xml"/>
        <route-files value="trips.trips.xml"/>
    </input>

    <output>
        <output-file value="simulation.rou.xml"/>
        <alternatives-output value="NUL"/>
    </output>

    <time>
        <begin value="0"/>
        <end value="50.0"/>
    </time>

    <report>
        <no-warnings value="true"/>
        <ignore-errors value="true"/>
        <no-step-log value="true"/>
    </report>

</configuration>
-->

<routes xmlns:xsi="http://www.w3.org/2001/XMLSchema-instance" xsi:noNamespaceSchemaLocation="http://sumo.dlr.de/xsd/routes_file.xsd">
    <vehicle id="1" depart="1.00">
        <route edges="-281997024#1 -281997024#0 282200986#1 282200986#2 282200986#3 282200986#4 -274245893#5 -274245893#4 -274245893#3 -274245893#2 -274245893#1 -274245893#0 -281519956#12 -281519956#11 -281519956#10 -281519956#9 -355691590 -274242299#4 -274242299#3 -274242299#2 -274242331 28093133#2 28093133#3 281520062#0 -281520062#0"/>
    </vehicle>
    <vehicle id="2" depart="2.00">
        <route edges="281519987 281520081#4 -355700748#1 -355700748#0 -28093139#3 -28093139#2 28093139#2"/>
    </vehicle>
    <vehicle id="3" depart="3.00">
        <route edges="355688573#0 355688573#1 355688573#2 265414923#1 265414923#2 -265414636#3 -274242299#7"/>
    </vehicle>
    <vehicle id="6" depart="6.00">
        <route edges="-1274793182 -1274793181 28093136#6 -1124065866#0 310315930#2 310315930#3 310315930#4 274245945#0 274245945#1 28269477#4 28269477#5 28269477#6 28269477#7 28269477#8 28269477#9 28269477#10 28269477#11 28269477#12 -281519956#15 -281519956#14 -281519956#13 -281519956#12 -281519956#11 -281519956#10"/>
    </vehicle>
    <vehicle id="7" depart="7.00">
        <route edges="28093132#0 28093134#0 28093134#1 28093134#2 28093134#3 28093133#0 28093133#1 28093133#2 28093133#3 28093133#4 274242299#0 274242329"/>
    </vehicle>
    <vehicle id="8" depart="8.00">
        <route edges="-281520001#2 28093139#0 28093138#1 28093138#2 28093138#3 1189638221#4 1189638221#5 1189638221#6 28093133#0 28093133#1 274242331 274242299#2 274242299#3 274242299#4 355691590 281519956#9 281519956#10 274245955"/>
    </vehicle>
    <vehicle id="9" depart="9.00">
        <route edges="281996934#2 28269477#12 -281519956#15 265414636#0 265414636#1 265414636#2 265414636#3 265414923#3 265414923#4 265414923#5 265414923#6 -265415318#2 -265415318#1 -265415318#0 -28093133#0 -1189638221#6 -1189638221#5 -1189638221#4 -1189638221#3 -1189638221#2 -1189638221#1 -1189638221#0"/>
    </vehicle>
    <vehicle id="10" depart="10.00">
        <route edges="281768489#4 281768489#5 28093136#2 28093136#3 28093136#4 28093136#5 28093136#6 -1124065866#0 310315930#2 310315930#3 310315930#4 274245945#0 274245945#1 28269477#4 28269477#5 28269477#6 28269477#7 28269477#8 28269477#9 28269477#10 28269477#11 28269477#12 -281519956#15 281519956#15"/>
    </vehicle>
    <vehicle id="11" depart="11.00">
        <route edges="-355693711#1 -355693711#0 -419228635#3 -28093137#3 -28093137#2 -28093137#1 -28093137#0 -1189638221#4 -28093138#3 -28093138#2 -28093138#1 -28093138#0 -28093132#4 -28093132#3"/>
    </vehicle>
    <vehicle id="12" depart="12.00">
        <route edges="355709102 -355709102 281520040#2 265414923#6 419228635#0 419228635#1 419228635#2 419228635#3 419228635#4 -355690410"/>
    </vehicle>
    <vehicle id="13" depart="13.00">
        <route edges="-274242456#0 282200986#6 274242344#0 1207967177#2 -274245893#4 -274245893#3 -274245893#2 -274245893#1 -274245893#0"/>
    </vehicle>
    <vehicle id="14" depart="14.00">
        <route edges="310315929 310315930#0 310315930#1 310315930#2 310315930#3 310315930#4 274245945#0 274245945#1 28269477#4 28269477#5 265414923#0 265414923#1 265414923#2 265414923#3 265414923#4 265414923#5 265414923#6 -265415318#2 -265415318#1 -265415318#0 -28093133#0 -1189638221#6 -1189638221#5 -1189638221#4 -28093138#3 -28093138#2 -28093138#1 -28093138#0 28093132#5"/>
    </vehicle>
    <vehicle id="15" depart="15.00">
        <route edges="281768489#5 28093136#2 28093136#3 28093136#4 28093136#5 28093136#6 -1124065866#0 310315930#2 310315930#3 310315930#4 274245945#0 274245945#1 28269477#4 28269477#5 28269477#6 28269477#7 28269477#8 28269477#9 28269477#10 28269477#11 28269477#12 28269477#13 27934061#0 27934061#1 27934061#2 27934061#3 27934061#4 27934061#5 282200986#3 282200986#4 282200986#5 282200986#6 282200986#7 49360422#0 281520069#0"/>
    </vehicle>
    <vehicle id="16" depart="16.00">
        <route edges="265413220 282200986#0 282200986#1 282200986#2 282200986#3 282200986#4 -274245893#5 -274245893#4 -274245893#3 -274245893#2 -274245893#1 28269477#21 28269477#22 420241890"/>
    </vehicle>
    <vehicle id="17" depart="17.00">
        <route edges="-355708312#0 -28093137#0 1189638221#5 1189638221#6 28093133#0 28093133#1 28093133#2 28093133#3 28093133#4 274242299#0 274242329 281519956#2 281520106#0 281520106#1 281520106#2 281520106#3 -28269477#25 274242344#2"/>
    </vehicle>
    <vehicle id="18" depart="18.00">
        <route edges="28269477#17 28269477#18 28269477#19 28269477#20 28269477#21 28269477#22 28269477#23 28269477#24 28269477#25 28269477#26 28269477#27 -281519928 -281520049#4 -274242288 28093133#10"/>
    </vehicle>
    <vehicle id="21" depart="21.00">
        <route edges="-281520049#2 -363222425#2 -363222425#1 281519956#6 281519956#7 281519956#8 281519956#9 281519956#10 281519956#11 281519956#12 281519956#13 281519956#14 281519956#15 -28269477#12 -28269477#11 -28269477#10"/>
    </vehicle>
    <vehicle id="22" depart="22.00">
        <route edges="-274242299#6 -274242299#5 355691590 281519956#9 281519956#10 281519956#11 281519956#12 274245893#0 274245893#1 274245893#2 274245893#3 274245893#4 274245893#5 282200986#5 282200986#6 282200986#7 49360422#0 281520069#0 281520069#1 -281520069#1"/>
    </vehicle>
    <vehicle id="23" depart="23.00">
        <route edges="-274245893#1 274245893#1 274245893#2 274245947#0 274245947#1 281996843 -281996843"/>
    </vehicle>
    <vehicle id="24" depart="24.00">
        <route edges="27934061#2 -27934061#2 -27934061#1 -27934061#0 -28269477#13 -28269477#12 -28269477#11 -28269477#10 -28269477#9 -28269477#8 -28269477#7 -28269477#6 265414923#0 -355688573#2 -355708292"/>
    </vehicle>
    <vehicle id="26" depart="26.00">
        <route edges="-281996843 -274245947#1 -274245947#0 -274245893#2 824892362 28269477#24 28269477#25 -281520106#3 -281520106#2 363222425#2"/>
    </vehicle>
    <vehicle id="27" depart="27.00">
        <route edges="28093132#0 28093132#1 28093132#2 28093132#3 28093132#4 28093132#5"/>
    </vehicle>
    <vehicle id="28" depart="28.00">
        <route edges="-28093134#0 28093134#0 28093134#1 28093134#2 28093134#3 28093133#0 28093133#1 28093133#2 28093133#3 28093133#4 274242299#0 274242329 281519956#2 281520106#0 281520106#1 281520106#2 281520106#3 -28269477#25 -274242344#1 -274242344#0 282200986#7 49360422#0 281520069#0"/>
    </vehicle>
    <vehicle id="29" depart="29.00">
        <route edges="-28093133#6 -28093133#5 -28093133#4 -28093133#3 -28093133#2 -28093133#1 265415318#0 265415318#1 265415318#2 419228635#0 419228635#1 355708417#0 -355708417#0"/>
    </vehicle>
    <vehicle id="31" depart="31.00">
        <route edges="265414923#0 265414923#1 265414923#2 265414923#3 265414923#4 265414923#5 265414923#6 -265415318#2 -265415318#1 -265415318#0 -28093133#0 -28093134#3 -28093134#2 -28093134#1 -28093134#0 28093132#1 28093132#2 281519874#0 281519874#1"/>
    </vehicle>
    <vehicle id="32" depart="32.00">
        <route edges="28269495#1 281768489#3 214949444#0 214949444#1 28093136#4 28093136#5 28093136#6 -1124065866#0 310315930#2 310315930#3 310315930#4 274245945#0 274245945#1 28269477#4 28269477#5 28269477#6 28269477#7 28269477#8 28269477#9 28269477#10 28269477#11 28269477#12 28269477#13 27934061#0 27934061#1 27934061#2 27934061#3 27934061#4 27934061#5 282200986#3 282200986#4"/>
    </vehicle>
    <vehicle id="35" depart="35.00">
        <route edges="-281519972 1189638221#3 1189638221#4 1189638221#5 1189638221#6 28093133#0 265415318#0 265415318#1 265415318#2 419228635#0 419228635#1"/>
    </vehicle>
    <vehicle id="36" depart="36.00">
        <route edges="314533763#0 314533763#1 310316660 28093136#0 28093136#1 28093136#2 28093136#3 28093136#4 28093136#5 28093136#6 -1124065866#0 310315930#2 310315930#3 310315930#4 274245945#0 274245945#1 28269477#4 28269477#5 28269477#6 28269477#7 28269477#8 419228636#0 355688057 -355688057"/>
    </vehicle>
    <vehicle id="37" depart="37.00">
        <route edges="28093132#0 28093134#0 28093134#1 28093134#2 28093134#3 28093133#0 265415318#0 265415318#1 265415318#2 -265414923#6 -265414923#5 -265414923#4 -265414923#3 -265414636#3 -265414636#2 419228634 -419228634"/>
    </vehicle>
    <vehicle id="38" depart="38.00">
        <route edges="355693025 -265414636#0 281519956#15 28269477#13 27934061#0 27934061#1 27934061#2 27934061#3 27934061#4 1207967177#4 1207967177#5 1207967177#6"/>
    </vehicle>
    <vehicle id="39" depart="39.00">
        <route edges="-281768489#4 214949444#0 214949444#1 28093136#4 28093136#5 28093136#6 -1124065866#0 310315930#2 310315930#3 310315930#4 274245945#0 274245945#1 28269477#4 28269477#5 265414923#0 265414923#1 265414923#2 265414923#3 265414923#4 265414923#5 265414923#6 -265415318#2 -265415318#1 -265415318#0 -28093133#0 -1189638221#6 -1189638221#5 -1189638221#4 -28093138#3 -281520081#2"/>
    </vehicle>
    <vehicle id="41" depart="41.00">
        <route edges="274242291 -274245893#5 -274245893#4 -274245893#3 -274245893#2 -274245893#1 -274245893#0 -281519956#12 -281519956#11 -281519956#10 -281519956#9 -355691590 274242299#5 -355706681 355706681"/>
    </vehicle>
    <vehicle id="42" depart="42.00">
        <route edges="-355709144 -355709135#0 -419228635#0 -265414923#6 -281520040#2 -281520040#1"/>
    </vehicle>
    <vehicle id="43" depart="43.00">
        <route edges="824892362 -28269477#23 -28269477#22 -28269477#21 -28269477#20 -28269477#19 -28269477#18 -28269477#17 -28269477#16 -28269477#15 -28269477#14 -28269477#13 -28269477#12 -28269477#11 -28269477#10 -28269477#9 -28269477#8 -28269477#7 -28269477#6 -28269477#5 -28269477#4 -274245945#1 274245925#0 274245925#1 355688791#1 355688791#2 355688791#3 355688791#4 355688791#5 -215532197#2 -215532197#1 -215532197#0 215532197#0"/>
    </vehicle>
    <vehicle id="44" depart="44.00">
        <route edges="-274242344#2 -28269477#24 -28269477#23 -28269477#22 -28269477#21 -28269477#20 -28269477#19 -28269477#18 -28269477#17 -28269477#16 -28269477#15 -28269477#14 -28269477#13 -281519956#15 265414636#0 265414636#1 265414636#2 265414636#3 -265414636#3"/>
    </vehicle>
    <vehicle id="45" depart="45.00">
        <route edges="-274245925#2 -274245925#1 -274245925#0 274245945#1 28269477#4 28269477#5 265414923#0 265414923#1 265414923#2 265414923#3 265414923#4 265414923#5 265414923#6 -265415318#2 -265415318#1 -265415318#0 28093133#1 28093133#2 28093133#3 28093133#4 28093133#5 28093133#6 28093133#7 28093133#8 28093133#9"/>
    </vehicle>
    <vehicle id="46" depart="46.00">
        <route edges="281544674#0 -214949725#1 -214949725#0 -573147679#1 -573147679#0 -1227106656#1 -1227106656#0 28093136#5 28093136#6 -1124065866#0 310315930#2 310315930#3 310315930#4 274245945#0 274245945#1 28269477#4 28269477#5 28269477#6 28269477#7 28269477#8 28269477#9 28269477#10 28269477#11 28269477#12 28269477#13 28269477#14 28269477#15 28269477#16 28269477#17 28269477#18 28269477#19 28269477#20 28269477#21 28269477#22 28269477#23 -824892362"/>
    </vehicle>
    <vehicle id="47" depart="47.00">
        <route edges="-265414923#3 -265414636#3 -274242299#7 -355709102"/>
    </vehicle>
    <vehicle id="48" depart="48.00">
        <route edges="824827129 355705839 -274242456#0 282200986#6 274242344#0 274242344#1 28269477#25 28269477#26 28269477#27 -281519928 -281520049#4 -274242288 274242288"/>
    </vehicle>
    <vehicle id="49" depart="49.00">
        <route edges="419228635#1 -419228635#1 -419228635#0 -265414923#6 -265414923#5 -265414923#4 -265414923#3 -265414923#2 -265414923#1 -265414923#0 -28269477#5 -28269477#4 -28269477#3 -28269477#2 355689498"/>
    </vehicle>
</routes>
