<?xml version="1.0" encoding="UTF-8"?>

<!-- generated on 2024-07-16 18:25:46.190161 by randomTrips.py v1_20_0+1224-eecd3762986
<configuration>
    <net-file value="lucknow.net.xml"/>
    <route-file value="lucknow.rou.xml"/>
    <length value="True"/>
    <end value="50.0"/>
</configuration>
-->

<!-- generated on 2024-07-16 18:25:46 by Eclipse SUMO duarouter Version 1.15.0
<configuration xmlns:xsi="http://www.w3.org/2001/XMLSchema-instance" xsi:noNamespaceSchemaLocation="http://sumo.dlr.de/xsd/duarouterConfiguration.xsd">

    <input>
        <net-file value="lucknow.net.xml"/>
        <route-files value="trips.trips.xml"/>
    </input>

    <output>
        <output-file value="lucknow.rou.xml"/>
        <alternatives-output value="NUL"/>
    </output>

    <time>
        <begin value="0"/>
        <end value="50.0"/>
    </time>

    <report>
        <no-warnings value="true"/>
        <ignore-errors value="true"/>
        <no-step-log value="true"/>
    </report>

</configuration>
-->

<routes xmlns:xsi="http://www.w3.org/2001/XMLSchema-instance" xsi:noNamespaceSchemaLocation="http://sumo.dlr.de/xsd/routes_file.xsd">
    <vehicle id="0" depart="0.00">
        <route edges="210670004 1205127679#0 1205127679#1 210669891#3 210670076#21 210670076#22 210670076#23 210670076#24 210670095#0 210670095#1 210670095#2 210670095#3 210670095#4 210669916#2 210669916#3 210669916#4 -210669908#8 -210669908#7 -210669908#6 -210669908#5 -210669908#4 210670131#0 210670131#1 210670131#2 210670131#3 210670131#4 210669996 210670156#1 210670156#2 -1202717864"/>
    </vehicle>
    <vehicle id="1" depart="1.00">
        <route edges="-213249504#7 -213249504#6 -213249504#5 213249513#0 213249513#1 213249513#2 213249577#0 213249577#1 213249577#2 213249577#3 213249577#4 213249577#5 213249577#6 -212885404#1 -212885404#0 212885397#0 212885397#1 212885397#2 212885397#3 212885397#4 212885397#5 212885397#6 1111969139 1273321764 1111969136 1273321763 1111969138 210669982#20 210669982#21 210669982#22 209442101#4 996187115#0 996187115#1 996187115#2 996187115#3 996187115#4 996187115#5 -996187117 -209420540#16 -209420540#15 -209420540#14 -209420540#13 -209420540#12 -209420540#11 -209420540#10 -209420540#9 -209420540#8 -209420540#7 -209420540#6 -209420540#5 213237678#0 213237678#1 213237678#2 213237678#3 213237678#4 213237678#5 213237678#6 213237678#7 213237678#8 -209615140#7 -209615140#6 -209615140#5 -213237726#1 -213237726#0"/>
    </vehicle>
    <vehicle id="2" depart="2.00">
        <route edges="210670155#2 -210670155#2 -210670155#1 -210670155#0 210670153#3 210669957 210669987#14 210669987#15 210669987#16 210669987#17 210669987#18 210669987#19 209442232#7 209442232#8 209442232#0 209442232#1 209442232#2 209442232#3 209287207#0 209287207#1 209287207#2 209287207#3 209287207#4 209287207#5 209287207#6 209287207#7 209287207#8 209287207#9 209287207#10 996187116#0 996187116#1 996187116#2 996187116#3 996187116#4 209442101#6 209442101#0 209442101#1 209442101#2 210669983#0 210669983#1 210669983#2 210669983#3 210669983#4 210669983#5 210669983#6 210669983#7 210669983#8 210669983#9 210669983#10 210669983#11 210670084#0 210670084#1"/>
    </vehicle>
    <vehicle id="3" depart="3.00">
        <route edges="213477335#2 213477335#3 213477335#4 213477335#5 213477335#6 213477335#7 213477335#8 213477130#3 213477130#4 213477130#5 213477130#6 213477130#7 213477130#8 213477130#9 213477130#10 212885399 212500806#0 212500806#1 212500806#2 212500806#3 212500806#4 212500806#5 212500806#6 212500806#7 1247510234 212500878 1247510231 1247510228#0 1247510228#1 1247510233 -210669896#14 -210669896#13 -210669896#12 -210669896#11 -210669896#10 -210669896#9 -210669896#8 -210669896#7 -210669896#6 -210669896#5 -210669896#4 -210669896#3 -210669896#2 -210669896#1 -210669896#0 210670036#27 210670036#28 210670036#29 210670036#30 210670036#31 210670036#32 210670036#33 210670036#34 210669916#3 210669881#0 210669881#1 210670026 -210669909#6 -210669909#5 -210669909#4 -210669909#3 -210669909#2"/>
    </vehicle>
    <vehicle id="4" depart="4.00">
        <route edges="-756134697 210669911#1 209442104#3 210670136#5 209643121#1 209643121#2 209643121#3 209643121#4 209442232#8 209442232#0 209442232#1 209442232#2 209442232#3 209287207#0 209287207#1 209287207#2 209287207#3 209287207#4 209287207#5 209287207#6 209287207#7 209287207#8 209287207#9 209287207#10 996187116#0 996187116#1 996187116#2 996187116#3 996187116#4 209442101#6 209442101#0 209442101#1 209442101#2 210669983#0 210669983#1 210669983#2 1111969137 -1273321763 -1111969136 -1273321764 1111969135 212885406#4 212885406#5 212885406#6 212885406#7 212885406#8 212885404#0 212885404#1 212885404#2 -213249544#1 -213249544#0 213249504#10 213249504#11 213249446#0 213249446#1 1264641199 -1264641199"/>
    </vehicle>
    <vehicle id="5" depart="5.00">
        <route edges="-213237678#0 209420540#5 209420540#6 209420540#7 209420540#8 209420540#9 209420540#10 209420540#11 209420540#12 209420540#13 209420540#14 209420540#15 209420540#16 996187116#0 996187116#1 996187116#2 996187116#3 996187116#4 209442101#6 209442101#0 209442101#1 209442101#2 210669983#0 210669983#1 210669983#2 210669983#3 210669983#4 210669983#5 210669983#6 210669983#7 210669983#8 210669983#9 210669983#10 210669983#11 210669983#12 210669983#13 210669983#14 210669983#15 210669983#16 1273321765#0 1273321765#1 1273321765#2 1273321765#3 210669922#2 1214289234 1214289231 1273312547 1214289233 1214289232 212882545#0 212882545#1 212882545#2 212882545#3 212882545#4 212882545#5 212882545#6 209432828#8"/>
    </vehicle>
    <vehicle id="6" depart="6.00">
        <route edges="-1135123904#2 1135123904#2 210670142#5 210670142#6 210669986#5 210669986#6 210669986#7 210669986#8 210669986#9 210669986#10 210669986#11 210669986#12 210669929#7 210669929#0 210669929#1 210670078#0 -210669882#9 -212819188#0"/>
    </vehicle>
    <vehicle id="7" depart="7.00">
        <route edges="210670036#32 210670036#33 210670036#34 -210670036#34 -210670036#33 -210670036#32 -210670036#31 -210670036#30 -210670036#29 -210670036#28 210670049#0 210670049#1 210669882#0"/>
    </vehicle>
    <vehicle id="8" depart="8.00">
        <route edges="-213237681 213237692#8 213237692#9 209432826#5 209432826#6 209432826#7 209432826#8 1273302810#0 1273302810#1 209442101#2 210669983#0 -210669890#12 -210669890#11 -210669890#10 -210669890#9 -210669890#8 -210669890#7 -210669890#6 -210669890#5 -210669890#4 210669928#0 210669928#1"/>
    </vehicle>
    <vehicle id="9" depart="9.00">
        <route edges="213249447#1 -213249447#1 -213249447#0 213249545#5 -213249549#4 -213249549#3 -213249549#2 -213249549#1 -213249549#0 212882539 212882540 212882542#0 212882542#1 1214289229#0 1214289229#1 1214289228 210669922#4 210669922#5 210669922#6 1083499298#0 1083499298#1 1083499298#2 1083499298#3 1083499298#4 1083499298#5 1083499298#6 -210670160#13 -210670160#12 -210670160#11 -210670160#10 -210670160#9 -210670160#8 -210670160#7 -210670160#6 -210670160#5 -210670160#4 -210670160#3 -210670160#2 -210670160#1 -210670160#0 210670160#0 1247510229#2 1247510229#3 1247510229#4 1247510229#5 1247510229#6 1247510232#0 1247510232#1 1247510230#0 1247510230#1 212500806#0 212500806#1 212500806#2 212500806#3 212500806#4 1107087154 -1107087154"/>
    </vehicle>
    <vehicle id="10" depart="10.00">
        <route edges="213249445#0 213249445#1 -213249576#0 213249504#3 213249504#4 213249513#0 213249513#1 213249513#2 213249577#0 213249577#1 213249577#2 213249577#3 213249577#4 213249577#5 213249577#6 -212885404#1 -212885404#0 212885397#0 212885397#1 212885397#2 212885397#3 212885397#4 212885397#5 212885397#6 1111969139 1273321764 1111969136 1273321763 1111969138 210669982#20 210669982#21 210669982#22 209442101#4 996187115#0 996187115#1 996187115#2 996187115#3 996187115#4 996187115#5 47295010#0 47295010#1 47295010#2 47295010#3 47295010#4 47295010#5 1272990794 -1272990792#1 -1272990792#0 1272990795#0 1272990795#1 1272990795#2 1272990795#3 1272990795#4 1272990795#5 210670122#0"/>
    </vehicle>
    <vehicle id="11" depart="11.00">
        <route edges="-213514474#1 213514474#1 213249506#0 213249506#1 213249506#2 213249506#3 213249506#4 213249506#5 213249506#6 213249506#7 213249506#8 213249506#9 213249506#10 213249506#11 213249506#12 213249506#13 213249506#14 210670160#6 210670160#7 210670160#8 210670160#9 210670160#10 210670160#11 210670160#12 210670160#13 1083499299#0 -210670106#13 -210670106#12 -210670106#11 -210670106#10 -210670106#9 -210670106#8 -210670106#7 -210670127#1"/>
    </vehicle>
    <vehicle id="12" depart="12.00">
        <route edges="213889315#2 994845745#0 994845745#1 -994845745#1 -994845745#0 -213889315#2 -213889315#1 -213889315#0 213477307#1 213477232 1229584532#1 1229584532#2 1229584532#3 212885400#0 212885400#1 212885400#2 212885400#3 212885400#4 212885400#5 212885400#6 212885400#7 212885400#8 212885400#9 212885400#10 212885400#11 212885400#12 212885400#13 212885400#14 212885400#15 212885400#16 -213477130#10 -213477130#9 -213477130#8 -213477130#7 -213477130#6 -213477130#5 -213477130#4 -213477130#3 -213477130#2 -213477130#1 -213516670"/>
    </vehicle>
    <vehicle id="13" depart="13.00">
        <route edges="-210669909#3 210669909#3 210669909#4 210669909#5 210669909#6 210670032 -210669881#0 210669916#4 210669916#5 210669916#0 210669916#1 -210670095#4 -210670095#3 -210670095#2 -210670095#1 -210670095#0 210670079#0 210670079#1 210670079#2 210670079#3 210670079#4 210670079#5 210670079#6 210670079#7 210670079#8 210670079#9 210670079#10 210670079#11 210670079#12 1278095256#0 1278095256#1 1278095256#2 1278095256#3 1278095256#4 1278095256#5 1278095256#6 210670015#0 -210669954"/>
    </vehicle>
    <vehicle id="14" depart="14.00">
        <route edges="213249526#1 213249526#2 213249526#3 213249446#7 213249446#8 213249505#12 213249505#13 1189514192 213249492 1083499299#0 1083499299#1 1083499299#2 1083499299#3 1083499299#4 1083499299#5 1083499299#6 1083499299#7 1083499299#8 1083499299#9 1083499299#10 210669922#7 210669922#0 210669982#0 210669982#1 210669982#2 210669982#3 210669982#4 210669982#5 210669982#6 210669982#7 210669982#8 210669982#9"/>
    </vehicle>
    <vehicle id="15" depart="15.00">
        <route edges="213249446#2 213249467#9 213249467#10 213249467#11 213249467#12 213249544#1 -212885404#2 -212885404#1 -212885404#0 212885397#0 212885397#1 212885397#2 212885397#3 212885397#4 212885397#5 212885397#6 1111969139 1273321764 1111969136 1273321763 1111969138 210669982#20 210669982#21 210669982#22 209442101#4 996187115#0 996187115#1 996187115#2 996187115#3 996187115#4 1273266277#1 1273266277#2 1273266277#3 1273266277#4 1273266277#5 -210669984#16 -210669984#15 -210669984#14 -210669984#13 -210669984#12 -210669984#11 -210669984#10 -210669984#9 -210670159#3 -210670159#2 -210670159#1 -210670159#0 210670159#0 210670159#1 210670159#2 210670159#3"/>
    </vehicle>
    <vehicle id="16" depart="16.00">
        <route edges="209615260#2 -209615264#0 209420540#1 209420540#2 209420540#3 209420540#4 209420540#5 209420540#6 209420540#7 209420540#8 209420540#9 209420540#10 209420540#11 209420540#12 209420540#13 209420540#14 209420540#15 209420540#16 996187117 47295010#0 47295010#1 47295010#2 47295010#3 47295010#4 47295010#5 47295010#6 47295010#7"/>
    </vehicle>
    <vehicle id="17" depart="17.00">
        <route edges="-213823231 213823231 212885406#6 213249505#0 212885397#2 212885397#3 212885397#4 212885397#5 212885397#6 1111969139 1273321764 1111969136 1273321763 1111969138 210669982#20 210669982#21 -210669890#11 -210669890#10 -210669890#9 -210669890#8 -210669890#7 -210669890#6 210669890#6 210669890#7"/>
    </vehicle>
    <vehicle id="18" depart="18.00">
        <route edges="213249486#2 1273321765#2 1273321765#3 210669922#2 210669922#3 210669922#4 210669922#5 210669922#6 210669922#7 210669922#0 210669982#0 210669982#1 210669982#2 210669982#3 210669982#4 210669982#5 210669982#6 210669982#7 210669982#8 210669982#9 210669982#10 210669982#11 210669982#12 210669982#13 210669982#14 210669982#15 210669982#16 210669982#17 210669982#18 210669982#19 210669982#20 210669982#21 210669982#22 209442101#4 996187115#0 996187115#1 996187115#2 996187115#3 996187115#4 996187115#5 47295010#0 47295010#1 47295010#2 47295010#3 47295010#4 47295010#5 47295010#6 47295010#7 47295010#8 47295010#9 47295010#10 47295010#11 209442232#5 210669986#0 210669986#1 210669986#2 210669986#3 210669986#4 210669986#5"/>
    </vehicle>
    <vehicle id="19" depart="19.00">
        <route edges="213249551#1 213249551#2 213249551#3 213249551#4 212885397#1 212885397#2 212885397#3 212885397#4 212885397#5 212885397#6 212885397#7 1273321766#0 1273321766#1 1273321766#2 210669922#6 210669922#7 210669922#0 210669982#0 210669982#1 210669982#2 210669982#3 210669982#4 210669982#5 210670076#4 210670076#5 210670076#6 210670076#7 210670076#8 210670076#9 210670076#10 210670076#11 210670076#12 210670076#13 210670076#14 210670076#15 210670076#16 210670076#17 210670076#18 210670076#19 210670076#20 210670076#21 210670076#22 210670076#23 210670076#24 210670095#0 210670095#1 210670095#2 210670095#3 210670095#4 210669916#2 210669916#3 210669916#4 -210669908#8 -210669908#7 -210669908#6 -210669908#5 -210669908#4 -210669908#3 210669908#3"/>
    </vehicle>
    <vehicle id="20" depart="20.00">
        <route edges="210670116#2 210670116#3 -210670116#3 -210670116#2 -210670116#1 210670076#14 210670076#15 210670076#16 210670076#17 210669890#0 210669890#1 210669890#2 210669890#3 210669890#4 210669890#5 210669890#6 210669890#7 210669890#8 210669890#9 210669890#10 210669890#11 210669982#22 209442101#4 996187115#0 996187115#1 996187115#2 996187115#3 996187115#4 996187115#5 -996187117 -209420540#16 -209420540#15 -209420540#14 -209420540#13 -209420540#12 -209420540#11 -209420540#10 -209420540#9 -209420540#8 -209420540#7 -209420540#6 -209420540#5 213237678#0 213237678#1 213237678#2 213237678#3 213237678#4 213237678#5 213237678#6 -209615264#4 -209615264#3"/>
    </vehicle>
    <vehicle id="21" depart="21.00">
        <route edges="-213237698#4 -213237698#3 -213237698#2 -213237698#1 -213237698#0 210670128#3 210670128#4 210670128#5 210669958 210670076#0 210670076#1 210670076#2 210669983#15 210669983#16 1273321765#0 1273321765#1 1273321765#2 1273321765#3 210669922#2 210669922#3 210669922#4 212885406#0 212885406#1 212885406#2 212885406#3 212885406#4 212885406#5 212885406#6 212885406#7 -213249551#3 -213249551#2 -213249551#1"/>
    </vehicle>
    <vehicle id="22" depart="22.00">
        <route edges="-210669896#12 -210669896#11 -210669896#10 -210669896#9 -210669896#8 -210669896#7 -210669896#6 -210669896#5 -210669896#4 -210669896#3 -210669896#2 -210669896#1 -210669896#0 210670036#27 210670036#28 210670036#29 210670036#30 210670036#31 210670036#32 210670036#33 210670036#34 210669916#3 210669881#0 210669881#1 210670026 -210669909#6 -210669909#5 -210669909#4 -210669909#3 -210669909#2 -210669909#1 -210669909#0 210670089#0 210670089#1 211333883#3 211333883#4 211333936 210669929#1 210669929#2 210669929#3 210669929#4 210669929#5 210669987#0 210669987#1 210669987#2 210669987#3 210669987#4 210669987#5 210669987#6 210669987#7 210669987#8 213237829#0 -213237829#0"/>
    </vehicle>
    <vehicle id="23" depart="23.00">
        <route edges="-210669949 210670052#2 210670052#3 210670052#4 -210670036#30 -210670036#29 -210670036#28 -210670036#27 210669896#0 210669896#1 210669896#2 210669896#3 210669896#4 210669896#5 210669896#6 210669896#7 210669896#8 210669896#9 210669896#10 210669896#11 210669896#12 210669896#13 210669896#14 1247510229#0 1247510229#1 210670160#1 210670160#2 210670160#3 210670160#4 210670160#5 -213249506#14 -213249506#13 -213249506#12 -213249506#11 -213249506#10 -213249534#4"/>
    </vehicle>
    <vehicle id="24" depart="24.00">
        <route edges="210669990#1 -210669980 210669985#2 210669985#3 -210670150#2 -210670150#1 -210670150#0 210669908#2 210669908#3 210669908#4 210669908#5 210669908#6 210669908#7 210669908#8 210669916#5 210669916#0 210669916#1 210669916#2 -210670036#34 -210670036#33 -210670036#32 -210670036#31 -210670036#30 -210670036#29 -210670036#28 -210670036#27 -210670036#26 -210670036#25 -210670036#24 -210670036#23 -210670036#22 -210670036#21 -210670036#20 -210670036#19 -210670036#18 -210670036#17 -210670036#16 -210670036#15 -210670036#14 -210670036#13 -210670036#12 -210670036#11 -210670036#10 -210670036#9 -210670036#8 -210670036#7 -210670036#6 -210670036#5 -210670036#4 -210670036#3 -210670036#2 -210670036#1 -210670036#0 1214481828 1083499299#10 210669922#7 210669922#0 210669922#1 210669922#2 210669922#3 210669922#4 212885406#0 212885406#1 212885406#2 212885406#3 212885406#4 212885406#5 -213823231"/>
    </vehicle>
    <vehicle id="26" depart="26.00">
        <route edges="-213249481 -213249519#1 -213249519#0 213249526#2 213249526#3 -213249582#4 -213249582#3 -213249547#2 -213249547#1 -213249547#0 -212885404#1 -212885404#0 212885397#0 -213249551#4 -213249551#3 -213249551#2 -213249551#1 -213249551#0 213249465#4 213249459#0 213823231"/>
    </vehicle>
    <vehicle id="27" depart="27.00">
        <route edges="210670036#17 210670036#18 210670036#19 210670036#20 210670036#21 210670036#22 210670036#23 210670036#24 210670036#25 210670036#26 210670036#27 210670036#28 210670036#29 210670036#30 210670036#31 210670036#32 210670036#33 210670036#34 210669916#3 210669916#4 210669916#5 210669916#0 210669984#0 210669984#1 210669984#2 210669984#3 210669984#4 210669984#5 210669984#6 210669984#7 210669984#8 210669984#9 210669984#10 210669984#11"/>
    </vehicle>
    <vehicle id="28" depart="28.00">
        <route edges="-210670139#0 210669905#4 210669905#5 210670079#8 210669890#1 210669890#2 210669890#3 210669890#4 210669890#5 210669890#6 210669890#7 210669890#8 210669890#9 210669890#10 210669890#11 210669982#22 209442101#4 996187115#0 996187115#1 996187115#2 996187115#3 996187115#4 996187115#5 47295010#0 47295010#1 47295010#2 47295010#3 47295010#4 47295010#5 47295010#6 47295010#7 47295010#8 47295010#9 47295010#10 47295010#11 209442232#5 210669986#0 210669986#1 210669986#2 210669986#3 1278477389#0 1278477389#1 1278477389#2 1278477389#3 1278477389#4 1278477389#5 -210670121#3 -210670121#2 210670158#0 210670158#1"/>
    </vehicle>
    <vehicle id="29" depart="29.00">
        <route edges="-210670130#0 210669909#6 210670032 210669881#1 210669881#2 210669881#3 210669881#4 210669881#5 210669881#6 210669881#7 210669881#8 210669881#9 210669881#10 210669881#11 210669881#12 210669881#13 210669881#14 210669881#15 210669881#16 210669881#17 213883993#0 213883993#1 213883993#2 213883993#3 213883933#0 -213883933#0 -213883993#3"/>
    </vehicle>
    <vehicle id="30" depart="30.00">
        <route edges="994845765 -210669892#2 -210669892#1 -1105443969 1272990796 1272990795#2 1272990795#3 1272990795#4 1272990795#5 -1272990790 210670053 210670019#0 210670114 210669908#0 210669908#1 210669908#2 210669908#3 210669908#4 210669908#5 210669908#6 210669908#7 210669908#8 210669916#5 210669916#0 210669916#1 210669916#2 -210670036#34 -210670036#33 -210670036#32 -210670036#31 -210670036#30 -210670036#29 -210670036#28 -210670036#27 -210670036#26 -210670036#25 210670036#25"/>
    </vehicle>
    <vehicle id="31" depart="31.00">
        <route edges="210669882#2 210669882#3 210669882#4 210669882#5 -210669881#6 -210669881#5 -210669881#4 -210669881#3 -210669881#2 -210669881#1 -210669881#0 210669916#4 210669916#5 210669916#0 210669916#1 -210670095#4 -210670095#3 -210670095#2 -210670095#1 -210670095#0 210670079#0 210670079#1 210670079#2 210670079#3 210670079#4 210670079#5 210670079#6 210670079#7 210670079#8 210669890#1 210669890#2 210669890#3 -210670096#3 -210670096#2 210670096#2"/>
    </vehicle>
    <vehicle id="32" depart="32.00">
        <route edges="213249513#0 213249513#1 213249513#2 213249513#3 -213249449#0 213249537#1 213249537#2 213249537#3 213249465#3 213249465#4 213249465#0 213249522#0 213249522#1 213249522#2 213249473 213249561#0 213249561#1 213249561#2 213249561#3 209432828#1 209432828#2 209432828#3 209432828#4 209432828#5 209432828#6 209432828#7 209432828#8 209432828#9 209432828#10 209432828#11 209432828#12 209442180#0 209442180#1 209442180#2 209432822 209432826#0 209432826#1 209432826#2 209432826#3 209432826#4 -213237692#9 -213237692#8 -213237692#7 -213237692#6 -213237692#5 -213237692#4 -213237692#3 213237692#3 213237692#4"/>
    </vehicle>
    <vehicle id="33" depart="33.00">
        <route edges="-213237698#5 213237698#5 209442180#1 209442180#2 209432822 209432826#0 209432826#1 209432826#2 209432826#3 209432826#4 209432826#5 209432826#6 209432826#7 209432826#8 1273302810#0 1273302810#1 209442101#2 209442101#3 209442101#4 996187115#0 996187115#1 996187115#2 996187115#3 996187115#4 996187115#5 -996187117 -209420540#16 -209420540#15 -209420540#14 -209420540#13 -209420540#12 -209420540#11 -209420540#10 -209420540#9 -209420540#8 -209420540#7 -209420540#6 -209420540#5 -209420540#4 -209420540#3 -209420540#2 -209420540#1"/>
    </vehicle>
    <vehicle id="34" depart="34.00">
        <route edges="-213252682#2 -213252682#1 -213252682#0 213252682#0 213252682#1 213252682#2 213252682#3 213252682#4 213252682#5 213252682#6 -210669882#0 -210669972#1 -210669972#0 210669896#4 210669896#5 210669896#6 210669896#7 210669896#8 210669896#9 210669896#10 210669896#11 210669896#12 210669896#13 210669896#14 1247510229#0 1247510229#1 210670160#1 210670160#2 210670160#3 210670160#4 210670160#5 -213249506#14 -213249506#13 -213249506#12 -213249506#11 -213249506#10 -213249506#9 -213249506#8 -213249506#7 -213249506#6 -213249506#5 -213249506#4 -213249506#3 -213249506#2"/>
    </vehicle>
    <vehicle id="35" depart="35.00">
        <route edges="-212885399 212885399 212500806#0 212500806#1 212500806#2 212500806#3 212500806#4 212500806#5 212500806#6 212500806#7 1247510234 212500878 1247510231 210670160#0 210670160#1 210670160#2 210670160#3 210670160#4 210670160#5 210670160#6 210670160#7 210670160#8 210670160#9 210670160#10 210670160#11 210670160#12 210670160#13 1083499299#0 1083499299#1 1083499299#2 1083499299#3 1083499299#4 1083499299#5 1083499299#6 1083499299#7 1083499299#8 1083499299#9 1083499299#10 210669922#7 210669922#0 210669982#0 210669982#1 210669982#2 210669982#3 210669982#4 210669982#5 210669982#6 210669982#7 210669982#8 210669982#9 210669982#10 210669982#11 210669982#12 210669982#13 210669982#14 210669982#15 210669982#16 210669982#17 210669982#18 210669982#19 210669982#20 210669982#21 210669982#22 209442101#4 209442101#5 209442101#6 209442101#0 1273302809#0 1119414090 -1119414089#0 213865256#0"/>
    </vehicle>
    <vehicle id="36" depart="36.00">
        <route edges="213249582#4 -213249582#4 -213249582#3 -213249547#2 -213249547#1 -213249547#0 212885404#2 212885404#3 212885403 1229584532#0 213477213#0 213477213#1 -213477307#2 -213477307#1 -213477307#0"/>
    </vehicle>
    <vehicle id="37" depart="37.00">
        <route edges="210670049#1 -210669972#1 -210669972#0 210669896#4 210669896#5 210669896#6 210669896#7 210669896#8 210669896#9 210669896#10 210669896#11 210669896#12 210669896#13 210669896#14 1247510229#0 1247510229#1 1247510229#2 1247510229#3 -213521680#6 -213521680#5 -213521680#4 -213521680#3 -213521680#2 -213521680#1 -213521680#0 -213514474#1 -213514474#0 -213514475#4 -213514475#3 -213514475#2 -213514475#1 -213514475#0 -213514488#10 -213514488#9 -213514488#8 -213514488#7 -213514488#6 -213514488#5 -214304691#7 -214304691#6"/>
    </vehicle>
    <vehicle id="38" depart="38.00">
        <route edges="213516675#0 213516675#1 213516675#2 -213477137#0 -213477127#1 -213477127#0 213477307#0 213477307#1 213477232 1229584532#1 1229584532#2 1229584532#3 1229584532#4 1229584532#5 212885402#0 212885402#1 212885402#2 1229584531#0"/>
    </vehicle>
    <vehicle id="39" depart="39.00">
        <route edges="-213249467#9 213249446#3 213249446#4 213249446#5 -213249547#3 -213249547#2 -213249547#1 -213249547#0 -212885404#1 -212885404#0 212885397#0 212885397#1 212885397#2 212885397#3 212885397#4 212885397#5 212885397#6 212885397#7 1273321766#0 213249580#0 213249580#1 213249580#2 213249580#3 213249580#4 213249580#5 -213249459#8 -213249459#7 -213249459#6 -213249459#5 -213249459#4 -213249459#3"/>
    </vehicle>
    <vehicle id="40" depart="40.00">
        <route edges="210669890#1 -210669890#1 210670079#9 210670079#10 210670079#11 210670079#12 1278095256#0 1278095256#1 1278095256#2 1278095256#3 1278095256#4 1278095256#5 1278095256#6 1278095256#7 1278095256#8 1278095256#9 1278095256#10 1278095256#11 1278095256#12 1278095256#13 210669983#14 210669983#15 210669983#16 1273321765#0 1273321765#1 1273321765#2 1273321765#3 210669922#2 210669922#3 210669922#4 212885406#0 212885406#1 212885406#2 212885406#3 212885406#4 212885406#5 212885406#6 212885406#7 212885406#8 212885404#0 212885404#1 212885404#2 -213249544#1 -213249544#0 -213249504#9 -213249504#8 -213249504#7"/>
    </vehicle>
    <vehicle id="41" depart="41.00">
        <route edges="210669905#2 210669905#3 210669905#4 210669905#5 210670079#8 210670079#9 210670079#10 210670079#11 210670079#12 1278095256#0 1278095256#1 1278095256#2 1278095256#3 1278095256#4 1278095256#5 1278095256#6 1278095256#7 1278095256#8 1278095256#9 1278095256#10 1278095256#11 1278095256#12 1278095256#13 210669983#14 210669983#15 210669983#16 1273321765#0 1273321765#1 1273321765#2 1273321765#3 210669922#2 210669922#3 210669922#4 212885406#0 212885406#1 212885406#2 212885406#3 212885406#4 212885406#5 212885406#6 212885406#7 212885406#8 212885404#0 212885404#1 212885404#2 212885404#3 212885403 1229584532#0 1229584532#1 1229584532#2 1229584532#3 212885400#0 212885400#1 212885400#2 212885400#3 212885400#4 -213514483#2 -213514483#1 -213514470#1 -213514470#0 213514470#0 213514470#1"/>
    </vehicle>
    <vehicle id="42" depart="42.00">
        <route edges="-214304495#1 -214304495#0 -213514488#6 -213514488#5 -213514488#4 -213514488#3 -213514488#2 -213514488#1 -213514488#0 -212885400#7 -212885400#6 -212885400#5 -212885400#4 -212885400#3 -212885400#2 -212885400#1 -212885400#0 -1229584532#3 -1229584532#2 -1229584532#1 -1229584532#0 -212885403 -212885404#3 -212885404#2 -212885404#1 -212885404#0 212885397#0 212885397#1 212885397#2 212885397#3 212885397#4 212885397#5 212885397#6 1111969139 1273321764 1111969136 1273321763 1111969138 210669982#20 210669982#21 210669982#22 209442101#4 209442101#5 209442101#6 209442101#0 1273302809#0 1273302809#1 1273302809#2 209432819#0 209432819#1 209432819#2 209432819#3 -213237692#8 -213237692#7 -213237692#6 -213237692#5 -213237692#4 -213237692#3 -213237692#2 -213237692#1 -213237692#0 -213237702#3 -213237702#2 -213237702#1"/>
    </vehicle>
    <vehicle id="43" depart="43.00">
        <route edges="996187116#1 996187116#2 996187116#3 996187116#4 209442101#6 209442101#0 209442101#1 209442101#2 209442101#3 209442101#4 996187115#0 996187115#1 996187115#2 996187115#3 996187115#4 996187115#5 47295010#0 47295010#1 47295010#2 47295010#3 47295010#4 47295010#5 47295010#6 47295010#7 47295010#8 47295010#9 47295010#10 47295010#11 209442232#5 209442232#6 209442104#0 209442104#1 209442104#2"/>
    </vehicle>
    <vehicle id="44" depart="44.00">
        <route edges="-210669908#5 -210669908#4 -210669908#3 210669985#11 210669985#12 210669984#4 210669984#5 210669984#6 210669984#7 210669984#8 210669984#9 210669984#10 210669984#11 210669984#12 210669984#13 210669984#14 210669984#15 210669984#16 1273266278#0 1273266278#1 1273266278#2 1273266278#3 1273266278#4 -996187117 -209420540#16 -209420540#15 -209420540#14 -209420540#13 -209420540#12 -209420540#11 -209420540#10 -209420540#9 -209420540#8 213237799#0 213237799#1 213237799#2 213237799#3 213237799#4 213237799#5 -209615264#10 -209615264#9"/>
    </vehicle>
    <vehicle id="45" depart="45.00">
        <route edges="-210669985#12 -210669985#11 210669908#3 210670131#0 210670131#1 210670131#2 210670131#3 210670131#4 210669996"/>
    </vehicle>
    <vehicle id="46" depart="46.00">
        <route edges="213237711 -213237711 -213237812#2 -213237812#1 -213237812#0 -213237798 -213237785#0 213237758#2 209420540#1 209420540#2 209420540#3 209420540#4 209420540#5 209420540#6 209420540#7 209420540#8 209420540#9 209420540#10 209420540#11 209420540#12 209420540#13 209420540#14 209420540#15 209420540#16 996187117 47295010#0 47295010#1 47295010#2 47295010#3 47295010#4 47295010#5 47295010#6 47295010#7 47295010#8 47295010#9 47295010#10 47295010#11 209442232#5 210669986#0 210669986#1 210669986#2 210669986#3 1278477389#0 1278477389#1 1278477389#2 1278477389#3 1278477389#4 1278477389#5 -210670121#3 -210670121#2 -210670121#1 -210670121#0 1081678435#0 1081678438"/>
    </vehicle>
    <vehicle id="47" depart="47.00">
        <route edges="-210669882#7 -210669882#6 -210669882#5 -210669882#4 -210669882#3 -210669882#2 -210669882#1 -210669882#0 -210670049#1 -210670049#0 -210670036#27 -210670036#26 -210670036#25 -210670036#24 -210670036#23 -210670036#22 -210670036#21 -210670036#20 -210670036#19 -210670036#18 -210670036#17 -210670036#16 -210670036#15 -210670036#14 -210670036#13 -210670036#12 -210670036#11 -210670036#10 -210670036#9 -210670036#8 -210670036#7 -210670036#6 -210670036#5 -210670036#4 -210670036#3 -210670036#2 -210670036#1 -210670036#0 1214481828 1083499299#10 210669922#7 210669922#0 210669922#1 210669922#2 210669922#3 210669922#4 212885406#0 212885406#1 212885406#2 212885406#3 212885406#4 212885406#5 212885406#6 212885406#7 212885406#8 212885404#0 212885404#1 212885404#2 212885404#3 212885403 1229584532#0 213477213#0 213477213#1 -213477307#2 -213477307#1 213889315#0 -213889315#0"/>
    </vehicle>
    <vehicle id="48" depart="48.00">